# Create simulation box of size 49.22 x 49.019 x 60.06 Angstrom
#
region 	     all block 0 49.22 0 49.019635930410494 0 60.062 units box
create_box          1 all
Created orthogonal box = (0.0000000 0.0000000 0.0000000) to (49.220000 49.019636 60.062000)

# fill box with randomly distributed atoms of number density 0.0327 N/A**3
#  ~800 atoms will eventually be removed to insert the substrate
#
create_atoms        1 random 4609 63782 all
Created 4609 atoms
mass                1 18.015

# Define potential
#
pair_style          sw
pair_coeff          * * ML.sw mW
Reading sw potential file ML.sw with DATE: 2019-02-27

# Run minimization
#
minimize            1.0e-8 1.0e-8 10000 1000
  update every 1 steps, delay 0 steps, check yes
Step Temp E_pair E_mol TotEng Press
0            0    6324719.7            0    6324719.7    4158613.6
Loop time of 0.968202 on 12 procs for 676 steps with 4609 atoms

Minimization stats:
  Stopping criterion = max force evaluations
  Energy initial, next-to-last, final =
  Force two-norm initial, final = 1.1602973e+08 5.8891408
  Force max component initial, final = 67075401.0 2.5939043
  Final line search alpha, max atom move = 0.033915216 0.087972824
  Iterations, force evaluations = 676 1000

# Add velocity/set timestep
#
velocity            all create 240 120593 rot yes dist gaussian
timestep            5.0

# Define output
#
compute	            1 all msd
thermo	            100
thermo_style        custom step temp press vol etotal ke pe c_1[4] density

# Neighbor lists
#
neigh_modify        delay 0 every 1 check yes

# Set fixes
#
fix                 1 all momentum 10 linear 1 1 1 rescale
fix                 2 all nve

# Run 0.5 ns equilibration
#
dump                1 all custom 1000 eq.liquidML_500_240K.dump id type x y z vx vy vz
run                 100000
Step Temp Press Volume TotEng KinEng PotEng c_1[4] Density
676          240   -164.29142    144914.38   -46163.843    3296.5375   -49460.381 6.2386028e-34   0.95143375
Averages over the last 501 of 1002 rows, steps 50700 to 100676:
Temp Press Volume TotEng KinEng PotEng c_1[4] Density
204.079 573.575 144914 -46156.2 2803.14 -48959.3 22.5702 0.951434
Loop time of 105.131 on 12 procs for 100000 steps with 4609 atoms

undump              1
unfix               2

fix 3 all nph z -500 -500 10000.0
fix 4 all temp/csvr 240 240 5000.0 837392

dump                1 all custom 1000 test.liquidML_500_240K.dump id type x y z vx vy vz
run                 100000
Step Temp Press Volume TotEng KinEng PotEng c_1[4] Density
100676    202.53437    730.06956    144914.38    -46156.19    2781.9255   -48938.116    28.776678   0.95143375
Averages over the last 501 of 1002 rows, steps 150700 to 200676:
Temp Press Volume TotEng KinEng PotEng c_1[4] Density
240.433 -500.449 142766 -43577.1 3302.49 -46879.6 220.133 0.965768
Loop time of 128.504 on 12 procs for 100000 steps with 4609 atoms

undump              1
unfix 3
unfix 4

fix                 2 all nve

dump                1 all custom 1000 test2.liquidML_500_240K.dump id type x y z vx vy vz
run                 100000
Step Temp Press Volume TotEng KinEng PotEng c_1[4] Density
200676    235.25274   -553.52803     143695.3   -43640.509    3231.3311    -46871.84    297.65283    0.9595055
Averages over the last 501 of 1002 rows, steps 250700 to 300676:
Temp Press Volume TotEng KinEng PotEng c_1[4] Density
240.024 -644.174 143695 -43641.1 3296.87 -46937.9 509.798 0.959506
Loop time of 124.375 on 12 procs for 100000 steps with 4609 atoms

write_data		data.liquidML_500_240K
System init for write_data ...
