# read in water data
read_data data.liquidML_500_240K group water extra/atom/types 1
Reading data file ...
  orthogonal box = (0.0000000 0.0000000 0.25263295) to (49.220000 49.019636 59.809367)
  reading atoms ...
  4609 atoms
  reading velocities ...
  4609 velocities

# remove area for graphite
region substrate block 0 49.22 0 49.019635930410494 25 35.062
delete_atoms region substrate
Deleted 777 atoms, new total = 3832

# Insert substrate
read_data data.graphite add append shift 0.0 0.0 25 group graphite offset 1 0 0 0 0
Reading data file ...
  orthogonal box = (0.0000000 0.0000000 0.25263295) to (49.220000 49.019636 59.809367)
  reading atoms ...
  2760 atoms
  reading velocities ...
  2760 velocities

# Define potential
# CHECK ON THIS %%%%%%%%%%%%
#
pair_style sw
pair_coeff * * MLC_e.sw mW C

# Delete water and ice atoms that are overlapping
#
delete_atoms overlap 2.5 water graphite
System init for delete_atoms ...
  update every 1 steps, delay 10 steps, check yes
Deleted 103 atoms, new total = 6489

# set timestep
#
timestep 10.0

# Define output
#
compute 1 all msd
compute 2 water temp
thermo 50
thermo_style custom step c_2 press vol etotal ke pe c_1[4]

# Neighbor lists
#
neigh_modify delay 0 every 1 check yes

# Fix graphite atoms in place
# CHECK ON THIS %%%%%%%%%%%%%%%%%%%%
#
fix 1 graphite setforce 0.0 0.0 0.0
velocity graphite set 0.0 0.0 0.0

### NEW FOR TESTING

# Set fixes

#fix             2 water momentum 10 linear 1 1 1 rescale
#fix             3 all nve

# Run 0.5 ns equilibration

#timestep 5.0

#reset_timestep  0

#run	            50000

#undump          1

#reset_timestep  0

#unfix           3
#unfix           4
#unfix           5

### END NEW FOR TESTING

# Set fixes
#
fix 2 water momentum 10 linear 1 1 1 rescale
fix 3 water nph z -500 -500 10000.0
fix 4 water temp/csvr 240 240 5000.0 837492

# Run 0.25 ns equilibration of water
#
dump 	1 all atom 2000 testnph.ML_graphite_m500atm_240K.dump
run 	25000
  update every 1 steps, delay 0 steps, check yes
Step c_2 Press Volume TotEng KinEng PotEng c_1[4]
0    242.97129    -1191.988     143695.3   -34728.414    2700.0087   -37428.423            0
Averages over the last 251 of 501 rows, steps 12500 to 25000:
c_2 Press Volume TotEng KinEng PotEng c_1[4]
240.877 -713.193 134663 -35521.7 2676.74 -38198.5 84.6643
Loop time of 105.383 on 12 procs for 25000 steps with 6489 atoms

unfix           3
unfix           4
undump          1

fix             3 water nve

# Run 0.25 ns equilibration

dump		    1 all atom 2000 testnve.ML_graphite_m500atm_240K.dump
run	            25000
Step c_2 Press Volume TotEng KinEng PotEng c_1[4]
25000    243.30587   -476.49686    134936.15   -35558.928    2703.7267   -38262.655    114.08337
Averages over the last 251 of 501 rows, steps 37500 to 50000:
c_2 Press Volume TotEng KinEng PotEng c_1[4]
240.558 -773.18 134936 -35555.5 2673.2 -38228.7 182.855
Loop time of 99.2835 on 12 procs for 25000 steps with 6489 atoms

unfix 3
undump 1
fix 3 water nph z -500 -500 10000.0
fix 4 water temp/csvr 240 240 5000.0 837492

dump		    1 all atom 2000 eq.ML_graphite_m500atm_240K.dump
run	            100000
Step c_2 Press Volume TotEng KinEng PotEng c_1[4]
50000    238.49613    -658.8445    134936.15   -35554.594    2650.2787   -38204.873     206.3691
Averages over the last 1001 of 2001 rows, steps 100000 to 150000:
c_2 Press Volume TotEng KinEng PotEng c_1[4]
240.634 -726.606 134744 -35542.1 2674.04 -38216.1 509.224
Loop time of 422.578 on 12 procs for 100000 steps with 6489 atoms

# Create data file for import to other simulations
#
write_data data.ML_graphite_m500atm_240K
System init for write_data ...
