# Create simulation box and atoms

read_data data.ML_graphite_1atm_240K
Reading data file ...
  orthogonal box = (0.0000000 0.0000000 2.0829560) to (49.220000 49.019636 25.757876)
  reading atoms ...
  4065 atoms
  reading velocities ...
  4065 velocities
group water type 1
1305 atoms in group water
group graphite type 2
2760 atoms in group graphite

# Define potential

pair_style sw
pair_coeff * * MLC_e.sw mW C

# Fix graphite atoms in place

fix 5 graphite setforce 0.0 0.0 0.0
velocity graphite set 0.0 0.0 0.0

# Equilibration of molecular water

# Add velocity/set timestep

velocity	    water create 240 24077 rot yes dist gaussian
timestep	    5.0

# Define output

compute			1 water msd
compute			3 water temp
thermo	    	50
thermo_style	custom step temp press vol etotal ke pe c_1[4] c_3

# Neighbor lists

neigh_modify    delay 0 every 1 check yes

# Set fixes

fix             1 water momentum 10 linear 1 1 1 rescale
fix             2 water nve
fix             3 water temp/csvr 240 240 500.0 24077
fix             4 water press/berendsen z 1 1 1000.0 modulus 20000

# Run 0.5 ns equilibration

dump		    1 all atom 2000 run_14/eq.het_freeze_14-240.dump

reset_timestep  0

run	            100000
  update every 1 steps, delay 0 steps, check yes
Step Temp Press Volume TotEng KinEng PotEng c_1[4] c_3
0    77.007874   -452.08497    57121.581   -12745.801    932.87431   -13678.675            0          240
Averages over the last 1001 of 2001 rows, steps 50000 to 100000:
Temp Press Volume TotEng KinEng PotEng c_1[4] c_3
76.8541 -607.379 57738.4 -12769.2 931.011 -13700.2 254.44 239.521
Loop time of 97.2985 on 80 procs for 100000 steps with 4065 atoms

write_data		run_14/data.eq-het_freeze_14-240
System init for write_data ...
undump          1

reset_timestep  0

unfix           2
unfix           3
unfix           4

################################################
#######         Run Simulation         #########
################################################

log				run_14/log.run_het_freeze_14
