# Create simulation box of size 49.22 x 49.019 x 60.06 Angstrom
#
region 	     all block 0 49.22 0 49.019635930410494 0 60.062 units box
create_box          1 all
Created orthogonal box = (0.0000000 0.0000000 0.0000000) to (49.220000 49.019636 60.062000)

# fill box with randomly distributed atoms of number density 0.0320 N/A**3
#  ~800 atoms will eventually be removed to insert the substrate
#
create_atoms        1 random 4609 63782 all
Created 4609 atoms
mass                1 18.015

# Define potential
#
pair_style          sw
pair_coeff          * * ML.sw mW
Reading sw potential file ML.sw with DATE: 2019-02-27

# Run minimization
#
minimize            1.0e-8 1.0e-8 10000 1000
  update every 1 steps, delay 0 steps, check yes
Step Temp E_pair E_mol TotEng Press
0            0    6324719.7            0    6324719.7    4158613.6
Loop time of 2.07827 on 6 procs for 681 steps with 4609 atoms

Minimization stats:
  Stopping criterion = max force evaluations
  Energy initial, next-to-last, final =
  Force two-norm initial, final = 1.1602973e+08 6.9548248
  Force max component initial, final = 67075401.0 1.1189962
  Final line search alpha, max atom move = 0.03723556 0.041666451
  Iterations, force evaluations = 681 1001

# Add velocity/set timestep
#
velocity            all create 230 120598 rot yes dist gaussian
timestep            5.0

# Define output
#
compute	            1 all msd
thermo	            100
thermo_style        custom step temp press vol etotal ke pe c_1[4] density

# Neighbor lists
#
neigh_modify        delay 0 every 1 check yes

# Set fixes
#
fix                 1 all momentum 10 linear 1 1 1 rescale
fix                 2 all nve
fix                 3 all temp/csvr 230 230 500.0 928347
fix                 4 all press/berendsen z 500 500 1000.0 modulus 20000

# Run 0.5 ns equilibration
#
dump                1 all custom 1000 eq.liquid_ML_500.dump id type x y z vx vy vz
run                 100000
Step Temp Press Volume TotEng KinEng PotEng c_1[4] Density
681          230   -260.81301    144914.38   -46376.489    3159.1817   -49535.671 1.0697289e-33   0.95143375
Averages over the last 501 of 1002 rows, steps 50700 to 100681:
Temp Press Volume TotEng KinEng PotEng c_1[4] Density
229.745 494.246 137465 -43737.4 3155.67 -46893 298.904 1.003
Loop time of 208.561 on 6 procs for 100000 steps with 4609 atoms

undump              1
unfix               2
unfix               3
unfix               4

write_data		data.liquid_ML_500
System init for write_data ...
