# read in water data
read_data data.liquidML_1000_245K group water extra/atom/types 1
Reading data file ...
  orthogonal box = (0.0000000 0.0000000 0.90979926) to (49.220000 49.019636 59.152201)
  reading atoms ...
  4466 atoms
  reading velocities ...
  4466 velocities

# remove area for graphite
region substrate block 0 49.22 0 49.019635930410494 25 35.062
delete_atoms region substrate
Deleted 769 atoms, new total = 3697

# Insert substrate
read_data data.graphite add append shift 0.0 0.0 25 group graphite offset 1 0 0 0 0
Reading data file ...
  orthogonal box = (0.0000000 0.0000000 0.90979926) to (49.220000 49.019636 59.152201)
  reading atoms ...
  2760 atoms
  reading velocities ...
  2760 velocities

# Define potential
# CHECK ON THIS %%%%%%%%%%%%
#
pair_style sw
pair_coeff * * MLC_e.sw mW C

# Delete water and ice atoms that are overlapping
#
delete_atoms overlap 2.5 water graphite
System init for delete_atoms ...
  update every 1 steps, delay 10 steps, check yes
Deleted 120 atoms, new total = 6337

# set timestep
#
timestep 10.0

# Define output
#
compute 1 all msd
compute 2 water temp
thermo 50
thermo_style custom step c_2 press vol etotal ke pe c_1[4]

# Neighbor lists
#
neigh_modify delay 0 every 1 check yes

# Fix graphite atoms in place
# CHECK ON THIS %%%%%%%%%%%%%%%%%%%%
#
fix 1 graphite setforce 0.0 0.0 0.0
velocity graphite set 0.0 0.0 0.0

### NEW FOR TESTING

# Set fixes

#fix             2 water momentum 10 linear 1 1 1 rescale
#fix             3 all nve

# Run 0.5 ns equilibration

#timestep 5.0

#reset_timestep  0

#run	            50000

#undump          1

#reset_timestep  0

#unfix           3
#unfix           4
#unfix           5

### END NEW FOR TESTING

# Set fixes
#
fix 2 water momentum 10 linear 1 1 1 rescale
fix 3 water nph z -1000 -1000 10000.0
fix 4 water temp/csvr 245 245 5000.0 837492

# Run 0.25 ns equilibration of water
#
dump 	1 all atom 2000 testnph.MLC_T4_1000atm_245K.dump
run 	25000
  update every 1 steps, delay 0 steps, check yes
Step c_2 Press Volume TotEng KinEng PotEng c_1[4]
0      242.948   -1140.9301    140524.15   -33025.737    2589.6742   -35615.411            0
Averages over the last 251 of 501 rows, steps 12500 to 25000:
c_2 Press Volume TotEng KinEng PotEng c_1[4]
244.89 -159.678 309542 -32877.1 2610.38 -35487.5 1269.84
Loop time of 73.2389 on 12 procs for 25000 steps with 6337 atoms

unfix           3
unfix           4
undump          1

fix             3 water nve

# Run 0.25 ns equilibration

dump		    1 all atom 2000 testnve.MLC_T4_1000atm_245K.dump
run	            25000
Step c_2 Press Volume TotEng KinEng PotEng c_1[4]
25000     243.2747   -87.130988    633028.04   -32837.568    2593.1567   -35430.725    6248.6379
Averages over the last 251 of 501 rows, steps 37500 to 50000:
c_2 Press Volume TotEng KinEng PotEng c_1[4]
245.043 -34.1985 633028 -32837.8 2612 -35449.8 6469.22
Loop time of 40.7715 on 12 procs for 25000 steps with 6337 atoms

unfix 3
undump 1
fix 3 water nph z -1000 -1000 10000.0
fix 4 water temp/csvr 245 245 5000.0 837492

dump		    1 all atom 2000 eq.MLC_T4_1000atm_245K.dump
run	            200000
Step c_2 Press Volume TotEng KinEng PotEng c_1[4]
50000    250.63886   -57.998944    633028.04   -32838.909    2671.6541   -35510.563    6531.8602
Averages over the last 118 of 236 rows, steps 55900 to 61750:
c_2 Press Volume TotEng KinEng PotEng c_1[4]
258.875 -3.22863 4.07285e+07 -32793.8 2759.44 -35553.3 2.22692e+08
