# Create simulation box of size 49.22 x 49.019 x 60.06 Angstrom
#
region 	     all block 0 49.22 0 49.019635930410494 0 60.062 units box
create_box          1 all
Created orthogonal box = (0.0000000 0.0000000 0.0000000) to (49.220000 49.019636 60.062000)

# fill box with randomly distributed atoms of number density 0.0327 N/A**3
#  ~800 atoms will eventually be removed to insert the substrate
#
create_atoms        1 random 4466 63782 all
Created 4466 atoms
mass                1 18.015

# Define potential
#
pair_style          sw
pair_coeff          * * ML.sw mW
Reading sw potential file ML.sw with DATE: 2019-02-27

# Run minimization
#
minimize            1.0e-8 1.0e-8 10000 1000
  update every 1 steps, delay 0 steps, check yes
Step Temp E_pair E_mol TotEng Press
0            0    6066723.2            0    6066723.2    3985627.8
Loop time of 2.45851 on 8 procs for 676 steps with 4466 atoms

Minimization stats:
  Stopping criterion = max force evaluations
  Energy initial, next-to-last, final =
  Force two-norm initial, final = 1.1601931e+08 3.6297599
  Force max component initial, final = 67075432.0 0.61280955
  Final line search alpha, max atom move = 0.060836701 0.037281312
  Iterations, force evaluations = 676 1000

# Add velocity/set timestep
#
velocity            all create 245 120598 rot yes dist gaussian
timestep            5.0

# Define output
#
compute	            1 all msd
thermo	            100
thermo_style        custom step temp press vol etotal ke pe c_1[4] density

# Neighbor lists
#
neigh_modify        delay 0 every 1 check yes

# Set fixes
#
fix                 1 all momentum 10 linear 1 1 1 rescale
fix                 2 all nve
fix                 3 all temp/csvr 245 245 500.0 928347
fix                 4 all press/berendsen z -1000 -1000 1000.0 modulus 20000

# Run 0.5 ns equilibration
#
dump                1 all custom 1000 eq.liquidML_1000_245K.dump id type x y z vx vy vz
run                 100000
Step Temp Press Volume TotEng KinEng PotEng c_1[4] Density
676          245   -310.37711    144914.38    -44355.39    3260.7826   -47616.172            0   0.92191433
Averages over the last 501 of 1002 rows, steps 50700 to 100676:
Temp Press Volume TotEng KinEng PotEng c_1[4] Density
244.287 -999.033 141196 -42208.1 3251.29 -45459.4 211.458 0.946197
Loop time of 240.554 on 8 procs for 100000 steps with 4466 atoms

undump              1
unfix               2
unfix               3
unfix               4

write_data		data.liquidML_1000_245K
System init for write_data ...
