# Create simulation box of size 49.22 x 49.019 x 29.88 Angstrom
#
region 	     all block 0 49.22 0 49.019635930410494 0 40.0 units box
create_box          1 all
Created orthogonal box = (0.0000000 0.0000000 0.0000000) to (49.220000 49.019636 40.000000)

# fill box with randomly distributed atoms of number density 0.0327 N/A**3
#  ~800 atoms will eventually be removed to insert the substrate
#
create_atoms        1 random 3155 63782 all
Created 3155 atoms
mass                1 18.015

# Define potential
#
pair_style          sw
pair_coeff          * * ML.sw mW
Reading sw potential file ML.sw with DATE: 2019-02-27

# Run minimization
#
minimize            1.0e-8 1.0e-8 10000 1000
  update every 1 steps, delay 0 steps, check yes
Step Temp E_pair E_mol TotEng Press
0            0     10078816            0     10078816    9763492.3
Loop time of 0.76476 on 12 procs for 638 steps with 3155 atoms

Minimization stats:
  Stopping criterion = max force evaluations
  Energy initial, next-to-last, final =
  Force two-norm initial, final = 3.8342191e+08 1.4825296
  Force max component initial, final = 1.9238706e+08 0.21380214
  Final line search alpha, max atom move = 0.15836363 0.033858483
  Iterations, force evaluations = 638 1001

# Add velocity/set timestep
#
velocity            all create 250 120593 rot yes dist gaussian
timestep            5.0

# Define output
#
compute	            1 all msd
thermo	            100
thermo_style        custom step temp press vol etotal ke pe c_1[4] density

# Neighbor lists
#
neigh_modify        delay 0 every 1 check yes

# Set fixes
#
fix                 1 all momentum 10 linear 1 1 1 rescale
fix                 2 all nve

# Run 0.5 ns equilibration in NVE ensemble
#
dump                1 all custom 1000 nve.ML_m1000atm_250K.dump id type x y z vx vy vz
run                 100000
Step Temp Press Volume TotEng KinEng PotEng c_1[4] Density
638          250    513.05847    96509.859   -31680.431    2350.3687     -34030.8 9.1912412e-34   0.97793729
Averages over the last 501 of 1002 rows, steps 50700 to 100638:
Temp Press Volume TotEng KinEng PotEng c_1[4] Density
193.745 1519.32 96509.9 -31674.2 1821.49 -33495.7 30.2751 0.977937
Loop time of 63.7107 on 12 procs for 100000 steps with 3155 atoms

undump              1
unfix               2

# Run 0.5 ns equilibration in NPH ensemble
#
fix 3 all nph z -1000 -1000 10000.0
fix 4 all temp/csvr 250 250 5000.0 837392

dump                1 all custom 1000 nph.ML_m1000atm_250K.dump id type x y z vx vy vz
run                 100000
Step Temp Press Volume TotEng KinEng PotEng c_1[4] Density
100638    191.49194    1434.0576    96509.859   -31674.087    1800.3067   -33474.393    39.217788   0.97793729
Averages over the last 501 of 1002 rows, steps 150700 to 200638:
Temp Press Volume TotEng KinEng PotEng c_1[4] Density
249.963 -998.714 98974.1 -29515.7 2350.02 -31865.7 264.49 0.953604
Loop time of 70.1373 on 12 procs for 100000 steps with 3155 atoms

undump              1
unfix 3
unfix 4

# Run 0.5 ns equilibration in NVE ensemble
#
fix                 2 all nve

dump                1 all custom 1000 eq.ML_m1000atm_250K.dump id type x y z vx vy vz
run                 100000
Step Temp Press Volume TotEng KinEng PotEng c_1[4] Density
200638    256.69903   -1068.9999     99017.76   -29452.483    2413.3495   -31865.832     360.2159    0.9531683
Averages over the last 501 of 1002 rows, steps 250700 to 300638:
Temp Press Volume TotEng KinEng PotEng c_1[4] Density
251.546 -1005.99 99017.8 -29452.2 2364.9 -31817.1 657.89 0.953168
Loop time of 67.3128 on 12 procs for 100000 steps with 3155 atoms

write_data		data.ML_m1000atm_250K
System init for write_data ...
