# Create simulation box of size 49.22 x 49.019 x 60.06 Angstrom
#
region 	     all block 0 49.22 0 49.019635930410494 0 60.062 units box
create_box          1 all
Created orthogonal box = (0.0000000 0.0000000 0.0000000) to (49.220000 49.019636 60.062000)

# fill box with 4096 randomly distributed atoms
# plus ~800 atoms that eill eventually be removed to insert the substrate
#
create_atoms        1 random 4896 63782 all
Created 4896 atoms
mass                1 18.015

# Define potential
#
pair_style          sw
pair_coeff          * * mW.sw mW
Reading sw potential file mW.sw with DATE: 2019-02-27

# Run minimization
#
minimize            1.0e-8 1.0e-8 10000 1000
  update every 1 steps, delay 0 steps, check yes
Step Temp E_pair E_mol TotEng Press
0            0    4347277.3            0    4347277.3    2883142.5
Loop time of 1.76134 on 12 procs for 708 steps with 4896 atoms

Minimization stats:
  Stopping criterion = max force evaluations
  Energy initial, next-to-last, final =
  Force two-norm initial, final = 72579639.0 4.5756174
  Force max component initial, final = 41918807.0 0.8258698
  Final line search alpha, max atom move = 0.060602002 0.050049363
  Iterations, force evaluations = 708 1001

# Add velocity/set timestep
#
velocity            all create 220 120598 rot yes dist gaussian
timestep            5.0

# Define output
#
compute	            1 all msd
thermo	            100
thermo_style        custom step temp press vol etotal ke pe c_1[4] density

# Neighbor lists
#
neigh_modify        delay 0 every 1 check yes

# Set fixes
#
fix                 1 all momentum 10 linear 1 1 1 rescale
fix                 2 all nve
fix                 3 all temp/csvr 220 220 500.0 928347
fix                 4 all press/berendsen z -1000 -1000 1000.0 modulus 20000

# Run 0.5 ns equilibration
#
dump                1 all custom 1000 eq.liquid_mW_1000.dump id type x y z vx vy vz
run                 100000
Step Temp Press Volume TotEng KinEng PotEng c_1[4] Density
708          220    801.51799    144914.38    -52172.46    3210.0343   -55382.494 1.443174e-34     1.010679
Averages over the last 501 of 1002 rows, steps 50800 to 100708:
Temp Press Volume TotEng KinEng PotEng c_1[4] Density
219.69 -1000.64 151387 -48990.4 3205.52 -52195.9 181.436 0.967471
Loop time of 156.378 on 12 procs for 100000 steps with 4896 atoms

undump              1
unfix               2
unfix               3
unfix               4

write_data		data.liquid_mW_1000
System init for write_data ...
