# Create simulation box and atoms

read_data data.graphite_ML_1atm_e
  orthogonal box = (0 0 0.848635) to (49.22 49.0196 59.2134)
  reading atoms ...
  6589 atoms
  reading velocities ...
  6589 velocities
group water type 1
3829 atoms in group water
group graphite type 2
2760 atoms in group graphite

# Define potential

pair_style sw
pair_coeff * * MLC_e.sw mW C

# Fix graphite atoms in place

fix 5 graphite setforce 0.0 0.0 0.0
velocity graphite set 0.0 0.0 0.0

# Equilibration of molecular water

# Add velocity/set timestep

velocity	    water create 230 9764 rot yes dist gaussian
timestep	    5.0

# Define output

compute			1 water msd
compute			3 water temp
thermo	    	50
thermo_style	custom step temp press vol etotal ke pe c_1[4] c_3

# Neighbor lists

neigh_modify    delay 0 every 1 check yes

# Set fixes

fix             1 water momentum 10 linear 1 1 1 rescale
fix             2 water nve
fix             3 water temp/csvr 230 230 500.0 9764
fix             4 water press/berendsen z 1 1 1000.0 modulus 20000

# Run 0.5 ns equilibration

dump		    1 all atom 2000 run_1/eq.het_freeze_1-230.dump

reset_timestep  0

run	            100000
  update every 1 steps, delay 0 steps, check yes
Step Temp Press Volume TotEng KinEng PotEng c_1[4] c_3
0    133.64299   -536.31266     140819.3   -33204.401    2624.4244   -35828.825            0          230
Averages over the last 1001 of 2001 rows, steps 50000 to 100000:
Temp Press Volume TotEng KinEng PotEng c_1[4] c_3
133.607 -203.404 137585 -37156.6 2623.71 -39780.4 239.287 229.937
Loop time of 187.721 on 60 procs for 100000 steps with 6589 atoms

write_data		run_1/data.eq-het_freeze_1-230
undump          1

reset_timestep  0

unfix           2
unfix           3
unfix           4

################################################
#######         Run Simulation         #########
################################################

log				run_1/log.run_het_freeze_1
