# read in water data
read_data data.liquid_ML_1 group water extra/atom/types 1
Reading data file ...
  orthogonal box = (0.0000000 0.0000000 0.9470496) to (49.220000 49.019636 59.114950)
  reading atoms ...
  4609 atoms
  reading velocities ...
  4609 velocities

# remove area for graphite
region substrate block 0 49.22 0 49.019635930410494 25 35.062
delete_atoms region substrate
Deleted 816 atoms, new total = 3793

# Insert substrate
read_data data.graphite add append shift 0.0 0.0 25 group graphite offset 1 0 0 0 0
Reading data file ...
  orthogonal box = (0.0000000 0.0000000 0.9470496) to (49.220000 49.019636 59.114950)
  reading atoms ...
  2760 atoms
  reading velocities ...
  2760 velocities

# Define potential
# CHECK ON THIS %%%%%%%%%%%%
#
pair_style sw
pair_coeff * * MLC_e.sw mW C

# Delete water and ice atoms that are overlapping
#
delete_atoms overlap 2.5 water graphite
System init for delete_atoms ...
  update every 1 steps, delay 10 steps, check yes
Deleted 118 atoms, new total = 6435

# set timestep
#
timestep 10.0

# Define output
#
compute 1 all msd
thermo 50
thermo_style custom step temp press vol etotal ke pe c_1[4]

# Neighbor lists
#
neigh_modify delay 0 every 1 check yes

# Fix graphite atoms in place
# CHECK ON THIS %%%%%%%%%%%%%%%%%%%%
#
fix 1 graphite setforce 0.0 0.0 0.0
velocity graphite set 0.0 0.0 0.0

# Set fixes
#
fix 2 water momentum 10 linear 1 1 1 rescale
fix 3 all nph z 1 1 10000.0
fix 4 all temp/csvr 235 235 5000.0 837492

# Run 1.0 ns equilibration of water
#
dump 1 all atom 1000 eq.all.graphite_ML_1atm_e.dump
run 100000
  update every 1 steps, delay 0 steps, check yes
Step Temp Press Volume TotEng KinEng PotEng c_1[4]
0    134.11859   -642.91555     140344.4   -34076.507    2572.1977   -36648.705            0
Averages over the last 1001 of 2001 rows, steps 50000 to 100000:
Temp Press Volume TotEng KinEng PotEng c_1[4]
235.383 -125.894 139025 -28889.9 4514.29 -33404.2 2291.97
Loop time of 629.824 on 12 procs for 100000 steps with 6435 atoms

# Create data file for import to other simulations
#
write_data data.graphite_ML_1atm_e
System init for write_data ...
