# Create simulation box and atoms

read_data data.graphite_ML_1000atm_e
  orthogonal box = (0 0 1.14504) to (49.22 49.0196 58.917)
  reading atoms ...
  6368 atoms
  reading velocities ...
  6368 velocities
group water type 1
3608 atoms in group water
group graphite type 2
2760 atoms in group graphite

# Define potential

pair_style sw
pair_coeff * * MLC_e.sw mW C

# Fix graphite atoms in place

fix 5 graphite setforce 0.0 0.0 0.0
velocity graphite set 0.0 0.0 0.0

# Equilibration of molecular water

# Add velocity/set timestep

velocity	    water create 240 32672 rot yes dist gaussian
timestep	    5.0

# Define output

compute			1 water msd
compute			3 water temp
thermo	    	50
thermo_style	custom step temp press vol etotal ke pe c_1[4] c_3

# Neighbor lists

neigh_modify    delay 0 every 1 check yes

# Set fixes

fix             1 water momentum 10 linear 1 1 1 rescale
fix             2 water nve
fix             3 water temp/csvr 240 240 500.0 32672
fix             4 water press/berendsen z -1000 -1000 1000.0 modulus 20000

# Run 0.5 ns equilibration

dump		    1 all atom 2000 run_2/eq.het_freeze_2-240.dump

reset_timestep  0

run	            100000
  update every 1 steps, delay 0 steps, check yes
Step Temp Press Volume TotEng KinEng PotEng c_1[4] c_3
0    135.96356    -1535.679    139389.01    -30592.68    2580.4276   -33173.107            0          240
Averages over the last 1001 of 2001 rows, steps 50000 to 100000:
Temp Press Volume TotEng KinEng PotEng c_1[4] c_3
135.908 -1178.96 135959 -34989.2 2579.37 -37568.6 155.162 239.902
Loop time of 167.555 on 60 procs for 100000 steps with 6368 atoms

write_data		run_2/data.eq-het_freeze_2-240
undump          1

reset_timestep  0

unfix           2
unfix           3
unfix           4

################################################
#######         Run Simulation         #########
################################################

log				run_2/log.run_het_freeze_2
