# read in water data
read_data data.liquidML_1000_245K group water extra/atom/types 1
Reading data file ...
  orthogonal box = (0.0000000 0.0000000 0.92519149) to (49.220000 49.019636 59.136809)
  reading atoms ...
  4466 atoms
  reading velocities ...
  4466 velocities

# remove area for graphite
region substrate block 0 49.22 0 49.019635930410494 25 35.062
delete_atoms region substrate
Deleted 775 atoms, new total = 3691

# Insert substrate
read_data data.graphite add append shift 0.0 0.0 25 group graphite offset 1 0 0 0 0
Reading data file ...
  orthogonal box = (0.0000000 0.0000000 0.92519149) to (49.220000 49.019636 59.136809)
  reading atoms ...
  2760 atoms
  reading velocities ...
  2760 velocities

# Define potential
# CHECK ON THIS %%%%%%%%%%%%
#
pair_style sw
pair_coeff * * MLC_e.sw mW C

# Delete water and ice atoms that are overlapping
#
delete_atoms overlap 2.5 water graphite
System init for delete_atoms ...
  update every 1 steps, delay 10 steps, check yes
Deleted 107 atoms, new total = 6344

# set timestep
#
timestep 10.0

# Define output
#
compute 1 all msd
thermo 50
thermo_style custom step temp press vol etotal ke pe c_1[4]

# Neighbor lists
#
neigh_modify delay 0 every 1 check yes

# Fix graphite atoms in place
# CHECK ON THIS %%%%%%%%%%%%%%%%%%%%
#
fix 1 graphite setforce 0.0 0.0 0.0
velocity graphite set 0.0 0.0 0.0

### NEW FOR TESTING

# Set fixes

fix             2 water momentum 10 linear 1 1 1 rescale
fix             3 water nve
fix             4 water temp/csvr 245 245 500.0 837493
fix             5 water press/berendsen z -1000 -1000 1000.0 modulus 20000

# Run 0.5 ns equilibration

timestep 5.0

dump		    1 all atom 2000 testeq.MLC_T1_1000atm_245K-245.dump

reset_timestep  0

run	            100000
  update every 1 steps, delay 0 steps, check yes
Step Temp Press Volume TotEng KinEng PotEng c_1[4]
0    137.93661    -1123.946    140449.87   -33228.616    2608.0059   -35836.622            0
Averages over the last 1001 of 2001 rows, steps 50000 to 100000:
Temp Press Volume TotEng KinEng PotEng c_1[4]
138.195 -1117.42 140332 -34096.7 2612.89 -36709.6 114.01
Loop time of 887.897 on 12 procs for 100000 steps with 6344 atoms

write_data		testdata.eq-MLC_T1_1000atm_245K-245
System init for write_data ...
undump          1

reset_timestep  0

unfix           3
unfix           4
unfix           5

timestep 5.0

### END NEW FOR TESTING

# Set fixes
#
#fix 2 water momentum 10 linear 1 1 1 rescale
fix 3 all nph z -1000 -1000 10000.0
fix 4 all temp/csvr 245 245 5000.0 837492

# Run 0.5 ns equilibration of water
#
dump 1 all atom 1000 eq.all.MLC_T1_1000atm_245K.dump
run 100000
Step Temp Press Volume TotEng KinEng PotEng c_1[4]
0    140.79559    -1188.746    140398.97    -34143.88    2662.0614   -36805.942    150.51669
Averages over the last 806 of 1612 rows, steps 40300 to 80550:
Temp Press Volume TotEng KinEng PotEng c_1[4]
247.312 -69.8672 7.56152e+06 -27295.4 4676.01 -31971.4 2.0171e+07
