# read in water data
read_data data.liquid_mW_500 group water extra/atom/types 1
Reading data file ...
  orthogonal box = (0.0000000 0.0000000 -0.8158638) to (49.220000 49.019636 60.877864)
  reading atoms ...
  4896 atoms
  reading velocities ...
  4896 velocities

# remove area for graphite
region substrate block 0 49.22 0 49.019635930410494 25 35.062
delete_atoms region substrate
Deleted 810 atoms, new total = 4086

# Insert substrate
read_data data.graphite_test add append shift 0.0 0.0 25 group graphite offset 1 0 0 0 0
Reading data file ...
  orthogonal box = (0.0000000 0.0000000 -0.8158638) to (49.220000 49.019636 60.877864)
  reading atoms ...
  2760 atoms
  reading velocities ...
  2760 velocities

write_data data.substrate_test2
System init for write_data ...

# Define potential
# CHECK ON THIS %%%%%%%%%%%%
#
pair_style sw
pair_coeff * * mWC.sw mW C
Reading sw potential file mWC.sw with DATE: 2019-02-27

# Delete water and ice atoms that are overlapping
#
delete_atoms overlap 2.5 water graphite
System init for delete_atoms ...
  update every 1 steps, delay 10 steps, check yes
Deleted 96 atoms, new total = 6750

# set timestep
#
timestep 10.0

# Define output
#
compute 1 all msd
thermo 50
thermo_style custom step temp press vol etotal ke pe c_1[4]

# Neighbor lists
#
neigh_modify delay 0 every 1 check yes

# Fix graphite atoms in place
# CHECK ON THIS %%%%%%%%%%%%%%%%%%%%
#
fix 1 graphite setforce 0.0 0.0 0.0
velocity graphite set 0.0 0.0 0.0

# Set fixes
#
fix 2 water momentum 10 linear 1 1 1 rescale
fix 3 all nph z -500 -500 10000.0
fix 4 all temp/csvr 220 220 5000.0 837492

# Run 0.5 ns equilibration of water
#
dump 1 all atom 1000 eq.all.graphite_substrate_500.dump
run 50000
  update every 1 steps, delay 0 steps, check yes
Step Temp Press Volume TotEng KinEng PotEng c_1[4]
0    129.98357   -1034.8334    148851.32   -39044.863    2614.9427   -41659.805            0
Averages over the last 501 of 1001 rows, steps 25000 to 50000:
Temp Press Volume TotEng KinEng PotEng c_1[4]
219.736 -647.595 146847 -34345 4420.54 -38765.6 1213.22
Loop time of 372.158 on 12 procs for 50000 steps with 6750 atoms

# Create data file for import to other simulations
#
write_data data.graphite_substrate_500
System init for write_data ...
