# read in water data
read_data data.liquidML_1000_245K group water extra/atom/types 1
Reading data file ...
  orthogonal box = (0.0000000 0.0000000 0.90979926) to (49.220000 49.019636 59.152201)
  reading atoms ...
  4466 atoms
  reading velocities ...
  4466 velocities

# remove area for graphite
region substrate block 0 49.22 0 49.019635930410494 25 35.062
delete_atoms region substrate
Deleted 769 atoms, new total = 3697

# Insert substrate
read_data data.graphite add append shift 0.0 0.0 25 group graphite offset 1 0 0 0 0
Reading data file ...
  orthogonal box = (0.0000000 0.0000000 0.90979926) to (49.220000 49.019636 59.152201)
  reading atoms ...
  2760 atoms
  reading velocities ...
  2760 velocities

# Define potential
# CHECK ON THIS %%%%%%%%%%%%
#
pair_style sw
pair_coeff * * MLC_e.sw mW C

# Delete water and ice atoms that are overlapping
#
delete_atoms overlap 2.5 water graphite
System init for delete_atoms ...
  update every 1 steps, delay 10 steps, check yes
Deleted 120 atoms, new total = 6337

# set timestep
#
timestep 10.0

# Define output
#
compute 1 all msd
compute 2 water temp
thermo 50
thermo_style custom step c_2 press vol etotal ke pe c_1[4]

# Neighbor lists
#
neigh_modify delay 0 every 1 check yes

# Fix graphite atoms in place
# CHECK ON THIS %%%%%%%%%%%%%%%%%%%%
#
fix 1 graphite setforce 0.0 0.0 0.0
velocity graphite set 0.0 0.0 0.0

### NEW FOR TESTING

# Set fixes

#fix             2 water momentum 10 linear 1 1 1 rescale
#fix             3 all nve

# Run 0.5 ns equilibration

#timestep 5.0

#reset_timestep  0

#run	            50000

#undump          1

#reset_timestep  0

#unfix           3
#unfix           4
#unfix           5

### END NEW FOR TESTING

# Set fixes
#
fix 2 water momentum 10 linear 1 1 1 rescale
fix 3 water nph z -1000 -1000 10000.0
fix 4 water temp/csvr 245 245 5000.0 837492

# Run 0.25 ns equilibration of water
#
dump 	1 all atom 2000 testnph.ML_graphite_m1000atm_245K.dump
run 	25000
  update every 1 steps, delay 0 steps, check yes
Step c_2 Press Volume TotEng KinEng PotEng c_1[4]
0      242.948   -1271.7752    140524.15   -33157.256    2589.6742   -35746.931            0
Averages over the last 251 of 501 rows, steps 12500 to 25000:
c_2 Press Volume TotEng KinEng PotEng c_1[4]
245.821 -1187.35 133357 -33839.5 2620.3 -36459.8 68.1955
Loop time of 99.1514 on 12 procs for 25000 steps with 6337 atoms

unfix           3
unfix           4
undump          1

fix             3 water nve

# Run 0.25 ns equilibration

dump		    1 all atom 2000 testnve.ML_graphite_m1000atm_245K.dump
run	            25000
Step c_2 Press Volume TotEng KinEng PotEng c_1[4]
25000    243.74377   -1061.6717    133182.61   -33873.704    2598.1567    -36471.86    89.386943
Averages over the last 251 of 501 rows, steps 37500 to 50000:
c_2 Press Volume TotEng KinEng PotEng c_1[4]
244.493 -1174.11 133183 -33873.6 2606.15 -36479.7 149.605
Loop time of 98.7874 on 12 procs for 25000 steps with 6337 atoms

unfix 3
undump 1
fix 3 water nph z -1000 -1000 10000.0
fix 4 water temp/csvr 245 245 5000.0 837492

dump		    1 all atom 2000 eq.ML_graphite_m1000atm_245K.dump
run	            200000
Step c_2 Press Volume TotEng KinEng PotEng c_1[4]
50000    238.37666   -1297.4694    133182.61    -33873.03    2540.9466   -36413.976    168.75868
Averages over the last 2001 of 4001 rows, steps 150000 to 250000:
c_2 Press Volume TotEng KinEng PotEng c_1[4]
245.149 -1186.95 133147 -33851.5 2613.13 -36464.6 616.888
Loop time of 767.524 on 12 procs for 200000 steps with 6337 atoms

# Create data file for import to other simulations
#
write_data data.ML_graphite_m1000atm_245K
System init for write_data ...
