# Create simulation box and atoms

read_data data.ML_graphite_m500atm_250K
  orthogonal box = (0 0 1.82651) to (49.22 49.0196 26.1135)
  reading atoms ...
  4063 atoms
  reading velocities ...
  4063 velocities
group water type 1
1303 atoms in group water
group graphite type 2
2760 atoms in group graphite

# Define potential

pair_style sw
pair_coeff * * MLC_e.sw mW C

# Fix graphite atoms in place

fix 5 graphite setforce 0.0 0.0 0.0
velocity graphite set 0.0 0.0 0.0

# Equilibration of molecular water

# Add velocity/set timestep

velocity	    water create 250 27349 rot yes dist gaussian
timestep	    5.0

# Define output

compute			1 water msd
compute			3 water temp
thermo	    	50
thermo_style	custom step temp press vol etotal ke pe c_1[4] c_3

# Neighbor lists

neigh_modify    delay 0 every 1 check yes

# Set fixes

fix             1 water momentum 10 linear 1 1 1 rescale
fix             2 water nve
fix             3 water temp/csvr 250 250 500.0 27349
fix             4 water press/berendsen z -500 -500 1000.0 modulus 20000

# Run 0.5 ns equilibration

dump		    1 all atom 2000 run_13/eq.het_freeze_13-250.dump

reset_timestep  0

run	            100000
  update every 1 steps, delay 0 steps, check yes
Step Temp Press Volume TotEng KinEng PotEng c_1[4] c_3
0    80.132939   -1249.8493    58598.323   -12595.461    970.25367   -13565.715            0          250
Averages over the last 1001 of 2001 rows, steps 50000 to 100000:
Temp Press Volume TotEng KinEng PotEng c_1[4] c_3
80.2329 -1022.98 58760.5 -12634.7 971.464 -13606.1 265.44 250.312
Loop time of 81.8132 on 80 procs for 100000 steps with 4063 atoms

write_data		run_13/data.eq-het_freeze_13-250
undump          1

reset_timestep  0

unfix           2
unfix           3
unfix           4

################################################
#######         Run Simulation         #########
################################################

log				run_13/log.run_het_freeze_13
