# Create simulation box of size 49.22 x 49.019 x 60.06 Angstrom
#
region 	     all block 0 49.22 0 49.019635930410494 0 60.062 units box
create_box          1 all
Created orthogonal box = (0.0000000 0.0000000 0.0000000) to (49.220000 49.019636 60.062000)

# fill box with randomly distributed atoms of number density 0.0327 N/A**3
#  ~800 atoms will eventually be removed to insert the substrate
#
create_atoms        1 random 4500 63782 all
Created 4500 atoms
mass                1 18.015

# Define potential
#
pair_style          sw
pair_coeff          * * ML.sw mW
Reading sw potential file ML.sw with DATE: 2019-02-27

# Run minimization
#
minimize            1.0e-8 1.0e-8 10000 1000
  update every 1 steps, delay 0 steps, check yes
Step Temp E_pair E_mol TotEng Press
0            0    6141464.9            0    6141464.9    4035494.4
Loop time of 0.915105 on 12 procs for 675 steps with 4500 atoms

Minimization stats:
  Stopping criterion = max force evaluations
  Energy initial, next-to-last, final =
  Force two-norm initial, final = 1.1602105e+08 2.3632887
  Force max component initial, final = 67075432.0 0.50715858
  Final line search alpha, max atom move = 0.11110583 0.056348275
  Iterations, force evaluations = 675 1001

# Add velocity/set timestep
#
velocity            all create 240 120593 rot yes dist gaussian
timestep            5.0

# Define output
#
compute	            1 all msd
thermo	            100
thermo_style        custom step temp press vol etotal ke pe c_1[4] density

# Neighbor lists
#
neigh_modify        delay 0 every 1 check yes

# Set fixes
#
fix                 1 all momentum 10 linear 1 1 1 rescale
fix                 2 all nve

# Run 0.5 ns equilibration in NVE ensemble
#
dump                1 all custom 1000 nve.ML_1atm_240K.dump id type x y z vx vy vz
run                 100000
Step Temp Press Volume TotEng KinEng PotEng c_1[4] Density
675          240   -367.61373    144914.38   -44801.143    3218.5595   -48019.703            0   0.92893293
Averages over the last 1501 of 3002 rows, steps 150700 to 300675:
Temp Press Volume TotEng KinEng PotEng c_1[4] Density
238.702 94.7591 135748 -42376.1 3201.16 -45577.2 507.639 0.991663
Loop time of 111.211 on 12 procs for 100000 steps with 4500 atoms

write_data		data.ML_1atm_240K
System init for write_data ...
