# Create simulation box of size 49.22 x 49.019 x 33.94 Angstrom
#
region 	     all block 0 49.22 0 49.019635930410494 0 33.94 units box
create_box          1 all
Created orthogonal box = (0.0000000 0.0000000 0.0000000) to (49.220000 49.019636 33.940000)

# fill box with randomly distributed atoms of number density 0.0327 N/A**3
#  ~800 atoms will eventually be removed to insert the substrate
#
create_atoms        1 random 2677 63782 all
Created 2677 atoms
mass                1 18.015

# Define potential
#
pair_style          sw
pair_coeff          * * ML.sw mW
Reading sw potential file ML.sw with DATE: 2019-02-27

# Run minimization
#
minimize            1.0e-8 1.0e-8 10000 1000
  update every 1 steps, delay 0 steps, check yes
Step Temp E_pair E_mol TotEng Press
0            0     11729707            0     11729707     13324765
Loop time of 0.657022 on 12 procs for 625 steps with 2677 atoms

Minimization stats:
  Stopping criterion = max force evaluations
  Energy initial, next-to-last, final =
  Force two-norm initial, final = 5.5538902e+08 2.4331059
  Force max component initial, final = 3.0045181e+08 0.51830411
  Final line search alpha, max atom move = 0.11142531 0.057752194
  Iterations, force evaluations = 625 1001

# Add velocity/set timestep
#
velocity            all create 240 120593 rot yes dist gaussian
timestep            5.0

# Define output
#
compute	            1 all msd
thermo	            100
thermo_style        custom step temp press vol etotal ke pe c_1[4] density

# Neighbor lists
#
neigh_modify        delay 0 every 1 check yes

# Set fixes
#
fix                 1 all momentum 10 linear 1 1 1 rescale
fix                 2 all nve

# Run 0.5 ns equilibration in NVE ensemble
#
dump                1 all custom 1000 nve.ML_1atm_240K.dump id type x y z vx vy vz
run                 100000
Step Temp Press Volume TotEng KinEng PotEng c_1[4] Density
625          240    175.21874    81888.616   -27035.464    1914.3954   -28949.859            0    0.9779309
Averages over the last 501 of 1002 rows, steps 50700 to 100625:
Temp Press Volume TotEng KinEng PotEng c_1[4] Density
187.703 1833.34 81888.6 -27030.7 1497.24 -28527.9 22.8601 0.977931
Loop time of 53.4779 on 12 procs for 100000 steps with 2677 atoms

undump              1
unfix               2

# Run 0.5 ns equilibration in NPH ensemble
#
fix 3 all nph z 1 1 10000.0
fix 4 all temp/csvr 240 240 5000.0 837392

dump                1 all custom 1000 nph.ML_1atm_240K.dump id type x y z vx vy vz
run                 100000
Step Temp Press Volume TotEng KinEng PotEng c_1[4] Density
100625    190.64612    1615.4017    81888.616   -27030.658    1520.7169   -28551.375    29.133305    0.9779309
Averages over the last 501 of 1002 rows, steps 150700 to 200625:
Temp Press Volume TotEng KinEng PotEng c_1[4] Density
239.921 -6.47606 81045.9 -25199.2 1913.76 -27112.9 285.388 0.988117
Loop time of 62.3202 on 12 procs for 100000 steps with 2677 atoms

undump              1
unfix 3
unfix 4

# Run 0.5 ns equilibration in NVE ensemble
#
fix                 2 all nve

dump                1 all custom 1000 eq.ML_1atm_240K.dump id type x y z vx vy vz
run                 100000
Step Temp Press Volume TotEng KinEng PotEng c_1[4] Density
200625    245.08101    538.23309     80418.48   -25136.749    1954.9249   -27091.674    390.28726   0.99580852
Averages over the last 501 of 1002 rows, steps 250700 to 300625:
Temp Press Volume TotEng KinEng PotEng c_1[4] Density
240.631 148.272 80418.5 -25136.5 1919.43 -27055.9 784.274 0.995809
Loop time of 62.8832 on 12 procs for 100000 steps with 2677 atoms

write_data		data.ML_1atm_240K
System init for write_data ...
