# Create simulation box of size 49.22 x 49.019 x 27.94 Angstrom
#
region 	     all block 0 49.22 0 49.019635930410494 0 27.94 units box
create_box          1 all
Created orthogonal box = (0.0000000 0.0000000 0.0000000) to (49.220000 49.019636 27.940000)

# fill box with randomly distributed atoms of number density 0.0327 N/A**3
#  ~800 atoms will eventually be removed to insert the substrate
#
create_atoms        1 random 2204 63782 all
Created 2204 atoms
mass                1 18.015

# Define potential
#
pair_style          sw
pair_coeff          * * ML.sw mW
Reading sw potential file ML.sw with DATE: 2019-02-27

# Run minimization
#
minimize            1.0e-8 1.0e-8 10000 1000
  update every 1 steps, delay 0 steps, check yes
Step Temp E_pair E_mol TotEng Press
0            0     13939896            0     13939896     19162577
Loop time of 1.00485 on 8 procs for 611 steps with 2204 atoms

Minimization stats:
  Stopping criterion = max force evaluations
  Energy initial, next-to-last, final =
  Force two-norm initial, final = 7.9261878e+08 1.0667102
  Force max component initial, final = 4.6048357e+08 0.30612176
  Final line search alpha, max atom move = 0.057375108 0.017563769
  Iterations, force evaluations = 611 1000

# Add velocity/set timestep
#
velocity            all create 240 120593 rot yes dist gaussian
timestep            5.0

# Define output
#
compute	            1 all msd
thermo	            100
thermo_style        custom step temp press vol etotal ke pe c_1[4] density

# Neighbor lists
#
neigh_modify        delay 0 every 1 check yes

# Set fixes
#
fix                 1 all momentum 10 linear 1 1 1 rescale
fix                 2 all nve

# Run 0.5 ns equilibration in NVE ensemble
#
dump                1 all custom 1000 nve.ML_1atm_240K.dump id type x y z vx vy vz
run                 100000
Step Temp Press Volume TotEng KinEng PotEng c_1[4] Density
611          240   -203.86406    67412.137   -22223.626    1576.0139    -23799.64 9.3607273e-34   0.97804047
Averages over the last 501 of 1002 rows, steps 50700 to 100611:
Temp Press Volume TotEng KinEng PotEng c_1[4] Density
189.711 1705.26 67412.1 -22219.8 1245.78 -23465.6 24.9977 0.97804
Loop time of 65.964 on 8 procs for 100000 steps with 2204 atoms

undump              1
unfix               2

# Run 0.5 ns equilibration in NPH ensemble
#
fix 3 all nph z 1 1 10000.0
fix 4 all temp/csvr 240 240 5000.0 837392

dump                1 all custom 1000 nph.ML_1atm_240K.dump id type x y z vx vy vz
run                 100000
Step Temp Press Volume TotEng KinEng PotEng c_1[4] Density
100611    187.28484    1953.9546    67412.137   -22219.551     1229.848   -23449.399    31.564004   0.97804047
Averages over the last 501 of 1002 rows, steps 150700 to 200611:
Temp Press Volume TotEng KinEng PotEng c_1[4] Density
241.086 -21.5443 66580.1 -20700.4 1583.15 -22283.6 302.513 0.990291
Loop time of 90.2302 on 8 procs for 100000 steps with 2204 atoms

undump              1
unfix 3
unfix 4

# Run 0.5 ns equilibration in NVE ensemble
#
fix                 2 all nve

dump                1 all custom 1000 eq.ML_1atm_240K.dump id type x y z vx vy vz
run                 100000
Step Temp Press Volume TotEng KinEng PotEng c_1[4] Density
200611    239.75318    239.20674    66933.603   -20770.472    1574.3931   -22344.865    428.03281   0.98503284
Averages over the last 501 of 1002 rows, steps 250700 to 300611:
Temp Press Volume TotEng KinEng PotEng c_1[4] Density
239.276 -76.8759 66933.6 -20770.4 1571.26 -22341.7 715.162 0.985033
Loop time of 105.069 on 8 procs for 100000 steps with 2204 atoms

write_data		data.ML_1atm_240K
System init for write_data ...
