# Create simulation box and atoms

read_data data.graphite_ML
Reading data file ...
  orthogonal box = (0.0000000 0.0000000 0.65335928) to (49.220000 49.019636 59.408641)
  reading atoms ...
  6589 atoms
  reading velocities ...
  6589 velocities
group water type 1
3829 atoms in group water
group graphite type 2
2760 atoms in group graphite

# Define potential

pair_style sw
pair_coeff * * MLC.sw mW C
Reading sw potential file MLC.sw with DATE: 2019-02-27

# Fix graphite atoms in place

fix 5 graphite setforce 0.0 0.0 0.0
velocity graphite set 0.0 0.0 0.0

# Equilibration of molecular water

# Add velocity/set timestep

velocity	    water create 235 3540 rot yes dist gaussian
timestep	    5.0

# Define output

compute			1 water msd
compute			3 water temp
thermo	    	50
thermo_style	custom step temp press vol etotal ke pe c_1[4] c_3

# Neighbor lists

neigh_modify    delay 0 every 1 check yes

# Set fixes

fix             1 water momentum 10 linear 1 1 1 rescale
fix             2 water nve
fix             3 water temp/csvr 235 235 500.0 3540
fix             4 water press/berendsen iso 1 1 1000.0 modulus 20000

# Run 0.5 ns equilibration

dump		    1 all atom 2000 run_0/eq.het_freeze_0-235.dump

reset_timestep  0

run	            100000
  update every 1 steps, delay 0 steps, check yes
Step Temp Press Volume TotEng KinEng PotEng c_1[4] c_3
0    136.54827   -1009.8985     141761.6   -32622.311    2681.4771   -35303.788            0          235
Averages over the last 1001 of 2001 rows, steps 50000 to 100000:
Temp Press Volume TotEng KinEng PotEng c_1[4] c_3
136.33 0.33109 136581 -36386.5 2677.2 -39063.7 300.952 234.625
Loop time of 658.124 on 12 procs for 100000 steps with 6589 atoms

write_data		run_0/data.eq-het_freeze_0-235
System init for write_data ...
undump          1

reset_timestep  0

unfix           2
unfix           3
unfix           4

################################################
#######         Run Simulation         #########
################################################

log				run_0/log.run_het_freeze_0
