# Create simulation box and atoms

read_data data.ML_graphite_m1000atm_250K
  orthogonal box = (0 0 1.04861) to (49.22 49.0196 38.9514)
  reading atoms ...
  5031 atoms
  reading velocities ...
  5031 velocities
group water type 1
2271 atoms in group water
group graphite type 2
2760 atoms in group graphite

# Define potential

pair_style sw
pair_coeff * * MLC_e.sw mW C

# Fix graphite atoms in place

fix 5 graphite setforce 0.0 0.0 0.0
velocity graphite set 0.0 0.0 0.0

# Equilibration of molecular water

# Add velocity/set timestep

velocity	    water create 250 31779 rot yes dist gaussian
timestep	    5.0

# Define output

compute			1 water msd
compute			3 water temp
thermo	    	50
thermo_style	custom step temp press vol etotal ke pe c_1[4] c_3

# Neighbor lists

neigh_modify    delay 0 every 1 check yes

# Set fixes

fix             1 water momentum 10 linear 1 1 1 rescale
fix             2 water nve
fix             3 water temp/csvr 250 250 500.0 31779
fix             4 water press/berendsen z -1000 -1000 1000.0 modulus 20000

# Run 0.5 ns equilibration

dump		    1 all atom 2000 run_14/eq.het_freeze_14-250.dump

reset_timestep  0

run	            100000
  update every 1 steps, delay 0 steps, check yes
Step Temp Press Volume TotEng KinEng PotEng c_1[4] c_3
0    112.82306   -1433.2777    91449.793   -21655.009    1691.6097   -23346.618            0          250
Averages over the last 1001 of 2001 rows, steps 50000 to 100000:
Temp Press Volume TotEng KinEng PotEng c_1[4] c_3
112.878 -1302.94 91267 -21702 1692.44 -23394.5 233.856 250.122
Loop time of 42.856 on 80 procs for 100000 steps with 5031 atoms

write_data		run_14/data.eq-het_freeze_14-250
undump          1

reset_timestep  0

unfix           2
unfix           3
unfix           4

################################################
#######         Run Simulation         #########
################################################

log				run_14/log.run_het_freeze_14
