# read in water data
read_data data.liquid_ML_1000_250K group water extra/atom/types 1
Reading data file ...
  orthogonal box = (0.0000000 0.0000000 0.93784205) to (49.220000 49.019636 59.124158)
  reading atoms ...
  4466 atoms
  reading velocities ...
  4466 velocities

# remove area for graphite
region substrate block 0 49.22 0 49.019635930410494 25 35.062
delete_atoms region substrate
Deleted 780 atoms, new total = 3686

# Insert substrate
read_data data.graphite add append shift 0.0 0.0 25 group graphite offset 1 0 0 0 0
Reading data file ...
  orthogonal box = (0.0000000 0.0000000 0.93784205) to (49.220000 49.019636 59.124158)
  reading atoms ...
  2760 atoms
  reading velocities ...
  2760 velocities

# Define potential
# CHECK ON THIS %%%%%%%%%%%%
#
pair_style sw
pair_coeff * * MLC_e.sw mW C

# Delete water and ice atoms that are overlapping
#
delete_atoms overlap 2.5 water graphite
System init for delete_atoms ...
  update every 1 steps, delay 10 steps, check yes
Deleted 97 atoms, new total = 6349

# set timestep
#
timestep 10.0

# Define output
#
compute 1 all msd
thermo 50
thermo_style custom step temp press vol etotal ke pe c_1[4]

# Neighbor lists
#
neigh_modify delay 0 every 1 check yes

# Fix graphite atoms in place
# CHECK ON THIS %%%%%%%%%%%%%%%%%%%%
#
fix 1 graphite setforce 0.0 0.0 0.0
velocity graphite set 0.0 0.0 0.0

### NEW FOR TESTING

# Set fixes

fix             2 water momentum 10 linear 1 1 1 rescale
fix             3 water nve
fix             4 water temp/csvr 250 250 500.0 837493
fix             5 water press/berendsen z -1000 -1000 1000.0 modulus 20000

# Run 0.5 ns equilibration

timestep 5.0

dump		    1 all atom 2000 testeq.graphite_ML_1000atm_e_250K-250.dump

reset_timestep  0

run	            100000
  update every 1 steps, delay 0 steps, check yes
Step Temp Press Volume TotEng KinEng PotEng c_1[4]
0    141.55019   -1741.4456    140388.83   -33250.657    2678.4385   -35929.096            0
Averages over the last 1001 of 2001 rows, steps 50000 to 100000:
Temp Press Volume TotEng KinEng PotEng c_1[4]
141.078 -1181.19 134077 -34232 2669.5 -36901.5 144.14
Loop time of 650.129 on 12 procs for 100000 steps with 6349 atoms

write_data		testdata.eq-graphite_ML_1000atm_e_250K-250
System init for write_data ...
undump          1

reset_timestep  0

unfix           3
unfix           4
unfix           5

timestep 10.0

### END NEW FOR TESTING

# Set fixes
#
#fix 2 water momentum 10 linear 1 1 1 rescale
fix 3 all nph z -1000 -1000 10000.0
fix 4 all temp/csvr 250 250 5000.0 837492

# Run 0.5 ns equilibration of water
#
dump 1 all atom 1000 eq.all.graphite_ML_1000atm_e_250K.dump
run 50000
Step Temp Press Volume TotEng KinEng PotEng c_1[4]
0    140.64067   -1038.0768    133776.56   -34169.291    2661.2284    -36830.52    190.94143
Averages over the last 441 of 882 rows, steps 22050 to 44050:
Temp Press Volume TotEng KinEng PotEng c_1[4]
250.961 -110.186 4.60289e+06 -27279.3 4748.73 -32028.1 6.00186e+06
   44100    268.
