# Create simulation box of size 49.22 x 49.019 x 33.94 Angstrom
#
region 	     all block 0 49.22 0 49.019635930410494 0 33.94 units box
create_box          1 all
Created orthogonal box = (0.0000000 0.0000000 0.0000000) to (49.220000 49.019636 33.940000)

# fill box with randomly distributed atoms of number density 0.0327 N/A**3
#  ~800 atoms will eventually be removed to insert the substrate
#
create_atoms        1 random 2677 63782 all
Created 2677 atoms
mass                1 18.015

# Define potential
#
pair_style          sw
pair_coeff          * * ML.sw mW
Reading sw potential file ML.sw with DATE: 2019-02-27

# Run minimization
#
minimize            1.0e-8 1.0e-8 10000 1000
  update every 1 steps, delay 0 steps, check yes
Step Temp E_pair E_mol TotEng Press
0            0     11729707            0     11729707     13324765
Loop time of 1.10462 on 8 procs for 628 steps with 2677 atoms

Minimization stats:
  Stopping criterion = max force evaluations
  Energy initial, next-to-last, final =
  Force two-norm initial, final = 5.5538902e+08 3.0504902
  Force max component initial, final = 3.0045181e+08 0.77200789
  Final line search alpha, max atom move = 0.06589714 0.050873112
  Iterations, force evaluations = 628 1000

# Add velocity/set timestep
#
velocity            all create 250 120593 rot yes dist gaussian
timestep            5.0

# Define output
#
compute	            1 all msd
thermo	            100
thermo_style        custom step temp press vol etotal ke pe c_1[4] density

# Neighbor lists
#
neigh_modify        delay 0 every 1 check yes

# Run 0.5 ns equilibration in NPH ensemble
#
fix 3 all nph z -1000 -1000 10000.0
fix 4 all temp/csvr 250 250 5000.0 837392

dump                1 all custom 1000 nph.ML_m1000atm_250K.dump id type x y z vx vy vz
run                 100000
Step Temp Press Volume TotEng KinEng PotEng c_1[4] Density
628          250    278.60143    81888.616   -26937.067    1994.1619   -28931.229 4.5327273e-34    0.9779309
Averages over the last 501 of 1002 rows, steps 50700 to 100628:
Temp Press Volume TotEng KinEng PotEng c_1[4] Density
249.771 -992.693 84015.8 -25053.3 1992.33 -27045.7 269.93 0.953184
Loop time of 94.062 on 8 procs for 100000 steps with 2677 atoms

undump              1
unfix 3
unfix 4

# Run 0.5 ns equilibration in NVE ensemble
#
fix                 2 all nve

dump                1 all custom 1000 eq.ML_m1000atm_250K.dump id type x y z vx vy vz
run                 100000
Step Temp Press Volume TotEng KinEng PotEng c_1[4] Density
100628     247.9034   -969.49715    84242.615   -24995.038    1977.4381   -26972.476    359.94609   0.95060448
Averages over the last 501 of 1002 rows, steps 150700 to 200628:
Temp Press Volume TotEng KinEng PotEng c_1[4] Density
251.898 -1081.12 84242.6 -24995.2 2009.3 -27004.5 627.837 0.950604
Loop time of 98.0069 on 8 procs for 100000 steps with 2677 atoms

write_data		data.ML_m1000atm_250K
System init for write_data ...
