# read in water data
read_data data.liquid_ML_500 group water extra/atom/types 1
Reading data file ...
  orthogonal box = (0.0000000 0.0000000 0.25802179) to (49.220000 49.019636 59.803978)
  reading atoms ...
  4609 atoms
  reading velocities ...
  4609 velocities

# remove area for graphite
region substrate block 0 49.22 0 49.019635930410494 25 35.062
delete_atoms region substrate
Deleted 780 atoms, new total = 3829

# Insert substrate
read_data data.graphite add append shift 0.0 0.0 25 group graphite offset 1 0 0 0 0
Reading data file ...
  orthogonal box = (0.0000000 0.0000000 0.25802179) to (49.220000 49.019636 59.803978)
  reading atoms ...
  2760 atoms
  reading velocities ...
  2760 velocities

# Define potential
# CHECK ON THIS %%%%%%%%%%%%
#
pair_style sw
pair_coeff * * MLC.sw mW C
Reading sw potential file MLC.sw with DATE: 2019-02-27

# Delete water and ice atoms that are overlapping
#
delete_atoms overlap 2.5 water graphite
System init for delete_atoms ...
  update every 1 steps, delay 10 steps, check yes
Deleted 117 atoms, new total = 6472

# set timestep
#
timestep 10.0

# Define output
#
compute 1 all msd
thermo 50
thermo_style custom step temp press vol etotal ke pe c_1[4]

# Neighbor lists
#
neigh_modify delay 0 every 1 check yes

# Fix graphite atoms in place
# CHECK ON THIS %%%%%%%%%%%%%%%%%%%%
#
fix 1 graphite setforce 0.0 0.0 0.0
velocity graphite set 0.0 0.0 0.0

# Set fixes
#
fix 2 water momentum 10 linear 1 1 1 rescale
fix 3 all nph z -500 -500 10000.0
fix 4 all temp/csvr 235 235 5000.0 837492

# Run 1.0 ns equilibration of water
#
dump 1 all atom 1000 eq.all.graphite_ML_500atm_long.dump
run 100000
  update every 1 steps, delay 0 steps, check yes
Step Temp Press Volume TotEng KinEng PotEng c_1[4]
0    132.07108    -844.3888     143669.3   -34758.499    2547.4956   -37305.995            0
Averages over the last 1001 of 2001 rows, steps 50000 to 100000:
Temp Press Volume TotEng KinEng PotEng c_1[4]
235.638 -623.787 140932 -29392.5 4545.18 -33937.7 2314.33
Loop time of 698.798 on 12 procs for 100000 steps with 6472 atoms

# Create data file for import to other simulations
#
write_data data.graphite_ML_500atm_long
System init for write_data ...
