# Create simulation box of size 49.22 x 49.019 x 29.88 Angstrom
#
region 	     all block 0 49.22 0 49.019635930410494 0 40.0 units box
create_box          1 all
Created orthogonal box = (0.0000000 0.0000000 0.0000000) to (49.220000 49.019636 40.000000)

# fill box with randomly distributed atoms of number density 0.0327 N/A**3
#  ~800 atoms will eventually be removed to insert the substrate
#
create_atoms        1 random 3155 63782 all
Created 3155 atoms
mass                1 18.015

# Define potential
#
pair_style          sw
pair_coeff          * * ML.sw mW
Reading sw potential file ML.sw with DATE: 2019-02-27

# Run minimization
#
minimize            1.0e-8 1.0e-8 10000 1000
  update every 1 steps, delay 0 steps, check yes
Step Temp E_pair E_mol TotEng Press
0            0     10078816            0     10078816    9763492.3
Loop time of 1.26805 on 8 procs for 642 steps with 3155 atoms

Minimization stats:
  Stopping criterion = max force evaluations
  Energy initial, next-to-last, final =
  Force two-norm initial, final = 3.8342191e+08 4.5814783
  Force max component initial, final = 1.9238706e+08 1.1034053
  Final line search alpha, max atom move = 0.077122065 0.085096896
  Iterations, force evaluations = 642 1000

# Add velocity/set timestep
#
velocity            all create 240 120593 rot yes dist gaussian
timestep            5.0

# Define output
#
compute	            1 all msd
thermo	            100
thermo_style        custom step temp press vol etotal ke pe c_1[4] density

# Neighbor lists
#
neigh_modify        delay 0 every 1 check yes

# Set fixes
#
fix                 1 all momentum 10 linear 1 1 1 rescale
fix                 2 all nve

# Run 0.5 ns equilibration in NVE ensemble
#
dump                1 all custom 1000 nve.ML_m500atm_240K.dump id type x y z vx vy vz
run                 100000
Step Temp Press Volume TotEng KinEng PotEng c_1[4] Density
642          240    512.85189    96509.859    -31794.08     2256.354   -34050.434            0   0.97793729
Averages over the last 501 of 1002 rows, steps 50700 to 100642:
Temp Press Volume TotEng KinEng PotEng c_1[4] Density
188.341 1531.61 96509.9 -31788.1 1770.68 -33558.8 24.1797 0.977937
Loop time of 106.361 on 8 procs for 100000 steps with 3155 atoms

undump              1
unfix               2

# Run 0.5 ns equilibration in NPH ensemble
#
fix 3 all nph z -500 -500 10000.0
fix 4 all temp/csvr 240 240 5000.0 837392

dump                1 all custom 1000 nph.ML_m500atm_240K.dump id type x y z vx vy vz
run                 100000
Step Temp Press Volume TotEng KinEng PotEng c_1[4] Density
100642    188.79024    1761.2425    96509.859   -31788.108    1774.9067   -33563.015    31.245981   0.97793729
Averages over the last 501 of 1002 rows, steps 150700 to 200642:
Temp Press Volume TotEng KinEng PotEng c_1[4] Density
239.935 -486.979 97493.6 -29799 2255.74 -32054.7 231.927 0.968081
Loop time of 113.991 on 8 procs for 100000 steps with 3155 atoms

undump              1
unfix 3
unfix 4

# Run 0.5 ns equilibration in NVE ensemble
#
fix                 2 all nve

dump                1 all custom 1000 eq.ML_m500atm_240K.dump id type x y z vx vy vz
run                 100000
Step Temp Press Volume TotEng KinEng PotEng c_1[4] Density
200642    245.41981   -638.16559     97255.51   -29711.562    2307.3082    -32018.87     315.7198   0.97043952
Averages over the last 501 of 1002 rows, steps 250700 to 300642:
Temp Press Volume TotEng KinEng PotEng c_1[4] Density
242.25 -447.253 97255.5 -29711.5 2277.51 -31989 603.934 0.97044
Loop time of 116.406 on 8 procs for 100000 steps with 3155 atoms

write_data		data.ML_m500atm_240K
System init for write_data ...
