# read in water data
read_data data.liquid_ML_500 group water extra/atom/types 1
Reading data file ...
  orthogonal box = (0.0000000 0.0000000 0.25802179) to (49.220000 49.019636 59.803978)
  reading atoms ...
  4609 atoms
  reading velocities ...
  4609 velocities

# remove area for graphite
region substrate block 0 49.22 0 49.019635930410494 25 35.062
delete_atoms region substrate
Deleted 780 atoms, new total = 3829

# Insert substrate
read_data data.graphite add append shift 0.0 0.0 25 group graphite offset 1 0 0 0 0
Reading data file ...
  orthogonal box = (0.0000000 0.0000000 0.25802179) to (49.220000 49.019636 59.803978)
  reading atoms ...
  2760 atoms
  reading velocities ...
  2760 velocities

# Define potential
# CHECK ON THIS %%%%%%%%%%%%
#
pair_style sw
pair_coeff * * MLC_e.sw mW C

# Delete water and ice atoms that are overlapping
#
delete_atoms overlap 2.5 water graphite
System init for delete_atoms ...
  update every 1 steps, delay 10 steps, check yes
Deleted 117 atoms, new total = 6472

# set timestep
#
timestep 10.0

# Define output
#
compute 1 all msd
compute 2 water temp
thermo 50
thermo_style custom step c_2 press vol etotal ke pe c_1[4]

# Neighbor lists
#
neigh_modify delay 0 every 1 check yes

# Fix graphite atoms in place
# CHECK ON THIS %%%%%%%%%%%%%%%%%%%%
#
fix 1 graphite setforce 0.0 0.0 0.0
velocity graphite set 0.0 0.0 0.0

### NEW FOR TESTING

# Set fixes

fix             2 water momentum 10 linear 1 1 1 rescale
fix             3 all nve

# Run 0.5 ns equilibration

timestep 5.0

dump		    1 all atom 2000 testnve.graphite_ML_500atm_e.dump

reset_timestep  0

run	            50000
  update every 1 steps, delay 0 steps, check yes
Step c_2 Press Volume TotEng KinEng PotEng c_1[4]
0    230.29695   -781.62954     143669.3   -34643.767    2547.4956   -37191.263            0
Averages over the last 501 of 1001 rows, steps 25000 to 50000:
c_2 Press Volume TotEng KinEng PotEng c_1[4]
252.663 -1622.98 143669 -34644.3 2794.91 -37439.2 60.0497
Loop time of 153.909 on 12 procs for 50000 steps with 6472 atoms

write_data		testdata.eq-graphite_ML_500atm_e-235
System init for write_data ...
undump          1

reset_timestep  0

unfix           3
#unfix           4
#unfix           5

### END NEW FOR TESTING

# Set fixes
#
#fix 2 water momentum 10 linear 1 1 1 rescale
fix 3 water nph z -500 -500 10000.0
fix 4 water temp/csvr 235 235 5000.0 837492

# Run 0.5 ns equilibration of water
#
dump 1 all atom 1000 testnph.graphite_ML_500atm_e.dump
run 50000
Step c_2 Press Volume TotEng KinEng PotEng c_1[4]
0     245.9547   -1510.9621     143669.3   -34643.862    2720.6983    -37364.56    79.174093
Averages over the last 501 of 1001 rows, steps 25000 to 50000:
c_2 Press Volume TotEng KinEng PotEng c_1[4]
234.645 -652.928 137254 -35389.2 2595.59 -37984.8 129.972
Loop time of 167.46 on 12 procs for 50000 steps with 6472 atoms

# Create data file for import to other simulations
#
write_data data.graphite_ML_500atm_e
System init for write_data ...
