# read in water data
read_data data.liquid_ML group water extra/atom/types 1
Reading data file ...
  orthogonal box = (0.0000000 0.0000000 0.14966194) to (49.220000 49.019636 59.912338)
  reading atoms ...
  4739 atoms
  reading velocities ...
  4739 velocities

# remove area for graphite
region substrate block 0 49.22 0 49.019635930410494 25 35.062
delete_atoms region substrate
Deleted 801 atoms, new total = 3938

# Insert substrate
read_data data.graphite add append shift 0.0 0.0 25 group graphite offset 1 0 0 0 0
Reading data file ...
  orthogonal box = (0.0000000 0.0000000 0.14966194) to (49.220000 49.019636 59.912338)
  reading atoms ...
  2760 atoms
  reading velocities ...
  2760 velocities

# Define potential
# CHECK ON THIS %%%%%%%%%%%%
#
pair_style sw
pair_coeff * * MLC_e.sw mW C

# Delete water and ice atoms that are overlapping
#
delete_atoms overlap 2.5 water graphite
System init for delete_atoms ...
  update every 1 steps, delay 10 steps, check yes
Deleted 109 atoms, new total = 6589

# set timestep
#
timestep 10.0

# Define output
#
compute 1 all msd
thermo 50
thermo_style custom step temp press vol etotal ke pe c_1[4]

# Neighbor lists
#
neigh_modify delay 0 every 1 check yes

# Fix graphite atoms in place
# CHECK ON THIS %%%%%%%%%%%%%%%%%%%%
#
fix 1 graphite setforce 0.0 0.0 0.0
velocity graphite set 0.0 0.0 0.0

# Set fixes
#
fix 2 water momentum 10 linear 1 1 1 rescale
fix 3 all nph z 1 1 10000.0
fix 4 all temp/csvr 235 235 5000.0 837492

# Run 0.5 ns equilibration of water
#
dump 1 all atom 1000 eq.all.graphite_ML_1atm_e.dump
run 50000
  update every 1 steps, delay 0 steps, check yes
Step Temp Press Volume TotEng KinEng PotEng c_1[4]
0    137.53943   -765.60198    144192.19   -35800.004     2700.941   -38500.945            0
Averages over the last 501 of 1001 rows, steps 25000 to 50000:
Temp Press Volume TotEng KinEng PotEng c_1[4]
234.955 -197.393 140276 -31247.3 4613.96 -35861.2 1206.38
Loop time of 421.655 on 12 procs for 50000 steps with 6589 atoms

# Create data file for import to other simulations
#
write_data data.graphite_ML_1atm_e
System init for write_data ...
