# Create simulation box of size 49.22 x 49.019 x 60.06 Angstrom
#
region 	     all block 0 49.22 0 49.019635930410494 0 60.062 units box
create_box          1 all
Created orthogonal box = (0.0000000 0.0000000 0.0000000) to (49.220000 49.019636 60.062000)

# fill box with randomly distributed atoms of number density 0.0327 N/A**3
#  ~800 atoms will eventually be removed to insert the substrate
#
create_atoms        1 random 4466 63782 all
Created 4466 atoms
mass                1 18.015

# Define potential
#
pair_style          sw
pair_coeff          * * ML.sw mW
Reading sw potential file ML.sw with DATE: 2019-02-27

# Run minimization
#
minimize            1.0e-8 1.0e-8 10000 1000
  update every 1 steps, delay 0 steps, check yes
Step Temp E_pair E_mol TotEng Press
0            0    6066723.2            0    6066723.2    3985627.8
Loop time of 1.38383 on 12 procs for 681 steps with 4466 atoms

Minimization stats:
  Stopping criterion = max force evaluations
  Energy initial, next-to-last, final =
  Force two-norm initial, final = 1.1601931e+08 5.8483290
  Force max component initial, final = 67075432.0 1.1305750
  Final line search alpha, max atom move = 0.024685882 0.027909241
  Iterations, force evaluations = 681 1001

# Add velocity/set timestep
#
velocity            all create 245 120593 rot yes dist gaussian
timestep            5.0

# Define output
#
compute	            1 all msd
thermo	            100
thermo_style        custom step temp press vol etotal ke pe c_1[4] density

# Neighbor lists
#
neigh_modify        delay 0 every 1 check yes

# Set fixes
#
fix                 1 all momentum 10 linear 1 1 1 rescale
fix                 2 all nve

# Run 0.5 ns equilibration
#
dump                1 all custom 1000 eq.liquidML_1000_245K.dump id type x y z vx vy vz
run                 100000
Step Temp Press Volume TotEng KinEng PotEng c_1[4] Density
681          245   -238.95579    144914.38   -44362.701    3260.7826   -47623.484            0   0.92191433
Averages over the last 501 of 1002 rows, steps 50700 to 100681:
Temp Press Volume TotEng KinEng PotEng c_1[4] Density
219.008 -745.832 144914 -44355.5 2914.84 -47270.3 20.8884 0.921914
Loop time of 84.9838 on 12 procs for 100000 steps with 4466 atoms

undump              1
unfix               2

fix 3 all nph z -1000 -1000 10000.0
fix 4 all temp/csvr 245 245 5000.0 837392

dump                1 all custom 1000 test.liquidML_1000_245K.dump id type x y z vx vy vz
run                 100000
Step Temp Press Volume TotEng KinEng PotEng c_1[4] Density
100681    217.04045   -647.76245    144914.38   -44355.286    2888.6601   -47243.946    25.751799   0.92191433
Averages over the last 501 of 1002 rows, steps 150700 to 200681:
Temp Press Volume TotEng KinEng PotEng c_1[4] Density
245.686 -1007.63 140857 -42060.4 3269.92 -45330.3 167.522 0.948482
Loop time of 98.5975 on 12 procs for 100000 steps with 4466 atoms

undump              1
unfix 3
unfix 4

fix                 2 all nve

dump                1 all custom 1000 test2.liquidML_1000_245K.dump id type x y z vx vy vz
run                 100000
Step Temp Press Volume TotEng KinEng PotEng c_1[4] Density
200681    238.71018   -1281.6542    140524.15    -42191.31    3177.0694   -45368.379    241.04201   0.95071661
Averages over the last 501 of 1002 rows, steps 250700 to 300681:
Temp Press Volume TotEng KinEng PotEng c_1[4] Density
243.231 -903.062 140524 -42191.5 3237.23 -45428.8 447.922 0.950717
Loop time of 96.3621 on 12 procs for 100000 steps with 4466 atoms

write_data		data.liquidML_1000_245K
System init for write_data ...
