# read in water data
read_data data.liquidML_1000_245K group water extra/atom/types 1
Reading data file ...
  orthogonal box = (0.0000000 0.0000000 0.90979926) to (49.220000 49.019636 59.152201)
  reading atoms ...
  4466 atoms
  reading velocities ...
  4466 velocities

# remove area for graphite
region substrate block 0 49.22 0 49.019635930410494 25 35.062
delete_atoms region substrate
Deleted 769 atoms, new total = 3697

# Insert substrate
read_data data.graphite add append shift 0.0 0.0 25 group graphite offset 1 0 0 0 0
Reading data file ...
  orthogonal box = (0.0000000 0.0000000 0.90979926) to (49.220000 49.019636 59.152201)
  reading atoms ...
  2760 atoms
  reading velocities ...
  2760 velocities

# Define potential
# CHECK ON THIS %%%%%%%%%%%%
#
pair_style sw
pair_coeff * * MLC_e.sw mW C

# Delete water and ice atoms that are overlapping
#
delete_atoms overlap 2.5 water graphite
System init for delete_atoms ...
  update every 1 steps, delay 10 steps, check yes
Deleted 120 atoms, new total = 6337

# set timestep
#
timestep 10.0

# Define output
#
compute 1 all msd
compute 2 water temp
thermo 50
thermo_style custom step c_2 press vol etotal ke pe c_1[4]

# Neighbor lists
#
neigh_modify delay 0 every 1 check yes

# Fix graphite atoms in place
# CHECK ON THIS %%%%%%%%%%%%%%%%%%%%
#
fix 1 graphite setforce 0.0 0.0 0.0
velocity graphite set 0.0 0.0 0.0

### NEW FOR TESTING

# Set fixes

fix             2 water momentum 10 linear 1 1 1 rescale
fix             3 water nve

# Run 0.5 ns equilibration

timestep 5.0

dump		    1 all atom 2000 testnve.MLC_T3_1000atm_245K.dump

reset_timestep  0

run	            50000
  update every 1 steps, delay 0 steps, check yes
Step c_2 Press Volume TotEng KinEng PotEng c_1[4]
0      242.948   -1307.9892    140524.15    -33232.85    2589.6742   -35822.525            0
Averages over the last 501 of 1001 rows, steps 25000 to 50000:
c_2 Press Volume TotEng KinEng PotEng c_1[4]
264.301 -2162.14 140524 -33233.2 2817.28 -36050.5 69.1233
Loop time of 155.811 on 12 procs for 50000 steps with 6337 atoms

write_data		testdata.eq-MLC_T3_1000atm_245K-245
System init for write_data ...
undump          1

reset_timestep  0

unfix           3
#unfix           4
#unfix           5

### END NEW FOR TESTING

# Set fixes
#
#fix 2 water momentum 10 linear 1 1 1 rescale

# Run 0.5 ns equilibration of water
#
#run 100000

# Create data file for import to other simulations
#
