# read in water data
read_data data.liquidML_1000_245K group water extra/atom/types 1
Reading data file ...
  orthogonal box = (0.0000000 0.0000000 0.90979926) to (49.220000 49.019636 59.152201)
  reading atoms ...
  4466 atoms
  reading velocities ...
  4466 velocities

# remove area for graphite
region substrate block 0 49.22 0 49.019635930410494 25 35.062
delete_atoms region substrate
Deleted 769 atoms, new total = 3697

# Insert substrate
read_data data.graphite add append shift 0.0 0.0 25 group graphite offset 1 0 0 0 0
Reading data file ...
  orthogonal box = (0.0000000 0.0000000 0.90979926) to (49.220000 49.019636 59.152201)
  reading atoms ...
  2760 atoms
  reading velocities ...
  2760 velocities

# Define potential
# CHECK ON THIS %%%%%%%%%%%%
#
pair_style sw
pair_coeff * * MLC_e.sw mW C

# Delete water and ice atoms that are overlapping
#
delete_atoms overlap 2.5 water graphite
System init for delete_atoms ...
  update every 1 steps, delay 10 steps, check yes
Deleted 120 atoms, new total = 6337

# set timestep
#
timestep 10.0

# Define output
#
compute 1 all msd
compute 2 water temp
thermo 50
thermo_style custom step c_2 press vol etotal ke pe c_1[4]

# Neighbor lists
#
neigh_modify delay 0 every 1 check yes

# Fix graphite atoms in place
# CHECK ON THIS %%%%%%%%%%%%%%%%%%%%
#
fix 1 graphite setforce 0.0 0.0 0.0
velocity graphite set 0.0 0.0 0.0

### NEW FOR TESTING

# Set fixes

#fix             2 water momentum 10 linear 1 1 1 rescale
#fix             3 all nve

# Run 0.5 ns equilibration

#timestep 5.0

#reset_timestep  0

#run	            50000

#undump          1

#reset_timestep  0

#unfix           3
#unfix           4
#unfix           5

### END NEW FOR TESTING

# Set fixes
#
fix 2 water momentum 10 linear 1 1 1 rescale
fix 3 water nph z -1000 -1000 10000.0
fix 4 water temp/csvr 245 245 5000.0 837492

# Run 0.25 ns equilibration of water
#
dump 	1 all atom 2000 testnph.MLC_T4_1000atm_245K.dump
run 	25000
  update every 1 steps, delay 0 steps, check yes
Step c_2 Press Volume TotEng KinEng PotEng c_1[4]
0      242.948   -1209.7192    140524.15   -33111.019    2589.6742   -35700.693            0
Averages over the last 2501 of 5001 rows, steps 125000 to 250000:
c_2 Press Volume TotEng KinEng PotEng c_1[4]
245.387 -1145.73 134966 -33564.9 2615.67 -36180.6 601.327
Loop time of 787.504 on 12 procs for 200000 steps with 6337 atoms

# Create data file for import to other simulations
#
write_data data.MLC_T4_1000atm_245K
System init for write_data ...
