# Create simulation box of size 49.22 x 49.019 x 27.94 Angstrom
#
region 	     all block 0 49.22 0 49.019635930410494 0 27.94 units box
create_box          1 all
Created orthogonal box = (0.0000000 0.0000000 0.0000000) to (49.220000 49.019636 27.940000)

# fill box with randomly distributed atoms of number density 0.0327 N/A**3
#  ~800 atoms will eventually be removed to insert the substrate
#
create_atoms        1 random 2204 63782 all
Created 2204 atoms
mass                1 18.015

# Define potential
#
pair_style          sw
pair_coeff          * * ML.sw mW
Reading sw potential file ML.sw with DATE: 2019-02-27

# Run minimization
#
minimize            1.0e-8 1.0e-8 10000 1000
  update every 1 steps, delay 0 steps, check yes
Step Temp E_pair E_mol TotEng Press
0            0     13939896            0     13939896     19162577
Loop time of 0.519134 on 12 procs for 623 steps with 2204 atoms

Minimization stats:
  Stopping criterion = max force evaluations
  Energy initial, next-to-last, final =
  Force two-norm initial, final = 7.9261878e+08 3.6287551
  Force max component initial, final = 4.6048357e+08 0.53181541
  Final line search alpha, max atom move = 0.081533127 0.043360574
  Iterations, force evaluations = 623 1000

# Add velocity/set timestep
#
velocity            all create 250 120593 rot yes dist gaussian
timestep            5.0

# Define output
#
compute	            1 all msd
thermo	            100
thermo_style        custom step temp press vol etotal ke pe c_1[4] density

# Neighbor lists
#
neigh_modify        delay 0 every 1 check yes

# Set fixes
#
fix                 1 all momentum 10 linear 1 1 1 rescale
fix                 2 all nve

# Run 0.5 ns equilibration in NVE ensemble
#
dump                1 all custom 1000 nve.ML_m500atm_250K.dump id type x y z vx vy vz
run                 100000
Step Temp Press Volume TotEng KinEng PotEng c_1[4] Density
623          250   -120.25332    67412.137   -22135.392    1641.6811   -23777.073 3.2045456e-33   0.97804047
Averages over the last 501 of 1002 rows, steps 50700 to 100623:
Temp Press Volume TotEng KinEng PotEng c_1[4] Density
192.609 1411.93 67412.1 -22131.2 1264.81 -23396 32.317 0.97804
Loop time of 45.4624 on 12 procs for 100000 steps with 2204 atoms

undump              1
unfix               2

# Run 0.5 ns equilibration in NPH ensemble
#
fix 3 all nph z -500 -500 10000.0
fix 4 all temp/csvr 250 250 5000.0 837392

dump                1 all custom 1000 nph.ML_m500atm_250K.dump id type x y z vx vy vz
run                 100000
Step Temp Press Volume TotEng KinEng PotEng c_1[4] Density
100623    188.42801    1544.0168    67412.137   -22131.168    1237.3549   -23368.523    42.516637   0.97804047
Averages over the last 501 of 1002 rows, steps 150700 to 200623:
Temp Press Volume TotEng KinEng PotEng c_1[4] Density
251.265 -498.956 67673.2 -20521.4 1649.99 -22171.4 354.581 0.974291
Loop time of 53.494 on 12 procs for 100000 steps with 2204 atoms

undump              1
unfix 3
unfix 4

# Run 0.5 ns equilibration in NVE ensemble
#
fix                 2 all nve

dump                1 all custom 1000 eq.ML_m500atm_250K.dump id type x y z vx vy vz
run                 100000
Step Temp Press Volume TotEng KinEng PotEng c_1[4] Density
200623    248.28691   -163.36013    67497.027   -20581.726    1630.4318   -22212.158    473.15051    0.9768104
Averages over the last 501 of 1002 rows, steps 250700 to 300623:
Temp Press Volume TotEng KinEng PotEng c_1[4] Density
247.792 -437.998 67497 -20581.8 1627.18 -22209 822.602 0.97681
Loop time of 54.6458 on 12 procs for 100000 steps with 2204 atoms

write_data		data.ML_m500atm_250K
System init for write_data ...
