# Create simulation box and atoms

read_data data.ML_graphite_m1000atm_255K
  orthogonal box = (0 0 1.44492) to (49.22 49.0196 26.4951)
  reading atoms ...
  4078 atoms
  reading velocities ...
  4078 velocities
group water type 1
1318 atoms in group water
group graphite type 2
2760 atoms in group graphite

# Define potential

pair_style sw
pair_coeff * * MLC_e.sw mW C

# Fix graphite atoms in place

fix 5 graphite setforce 0.0 0.0 0.0
velocity graphite set 0.0 0.0 0.0

# Equilibration of molecular water

# Add velocity/set timestep

velocity	    water create 255 32492 rot yes dist gaussian
timestep	    5.0

# Define output

compute			1 water msd
compute			3 water temp
thermo	    	50
thermo_style	custom step temp press vol etotal ke pe c_1[4] c_3

# Neighbor lists

neigh_modify    delay 0 every 1 check yes

# Set fixes

fix             1 water momentum 10 linear 1 1 1 rescale
fix             2 water nve
fix             3 water temp/csvr 255 255 500.0 32492
fix             4 water press/berendsen z -1000 -1000 1000.0 modulus 20000

# Run 0.5 ns equilibration

dump		    1 all atom 2000 run_5/eq.het_freeze_5-255.dump

reset_timestep  0

run	            100000
  update every 1 steps, delay 0 steps, check yes
Step Temp Press Volume TotEng KinEng PotEng c_1[4] c_3
0    82.373068   -1477.0276    60439.688   -12684.867    1001.0603   -13685.928            0          255
Averages over the last 1001 of 2001 rows, steps 50000 to 100000:
Temp Press Volume TotEng KinEng PotEng c_1[4] c_3
82.2697 -1431.31 60591.8 -12740.8 999.805 -13740.6 250.524 254.68
Loop time of 84.3073 on 32 procs for 100000 steps with 4078 atoms

write_data		run_5/data.eq-het_freeze_5-255
undump          1

reset_timestep  0

unfix           2
unfix           3
unfix           4

################################################
#######         Run Simulation         #########
################################################

log				run_5/log.run_het_freeze_5
