# Create simulation box of size 49.22 x 49.019 x 27.94 Angstrom
#
region 	     all block 0 49.22 0 49.019635930410494 0 27.94 units box
create_box          1 all
Created orthogonal box = (0.0000000 0.0000000 0.0000000) to (49.220000 49.019636 27.940000)

# fill box with randomly distributed atoms of number density 0.0327 N/A**3
#  ~800 atoms will eventually be removed to insert the substrate
#
create_atoms        1 random 2204 63782 all
Created 2204 atoms
mass                1 18.015

# Define potential
#
pair_style          sw
pair_coeff          * * ML.sw mW
Reading sw potential file ML.sw with DATE: 2019-02-27

# Run minimization
#
minimize            1.0e-8 1.0e-8 10000 1000
  update every 1 steps, delay 0 steps, check yes
Step Temp E_pair E_mol TotEng Press
0            0     13939896            0     13939896     19162577
Loop time of 0.548055 on 12 procs for 623 steps with 2204 atoms

Minimization stats:
  Stopping criterion = max force evaluations
  Energy initial, next-to-last, final =
  Force two-norm initial, final = 7.9261878e+08 3.6287551
  Force max component initial, final = 4.6048357e+08 0.53181541
  Final line search alpha, max atom move = 0.081533127 0.043360574
  Iterations, force evaluations = 623 1000

# Add velocity/set timestep
#
velocity            all create 255 120593 rot yes dist gaussian
timestep            5.0

# Define output
#
compute	            1 all msd
thermo	            100
thermo_style        custom step temp press vol etotal ke pe c_1[4] density

# Neighbor lists
#
neigh_modify        delay 0 every 1 check yes

# Set fixes
#
fix                 1 all momentum 10 linear 1 1 1 rescale
fix                 2 all nve

# Run 0.5 ns equilibration in NVE ensemble
#
dump                1 all custom 1000 nve.ML_m1000atm_255K.dump id type x y z vx vy vz
run                 100000
Step Temp Press Volume TotEng KinEng PotEng c_1[4] Density
623          255   -97.988789    67412.137   -22102.559    1674.5148   -23777.073 3.2045456e-33   0.97804047
Averages over the last 501 of 1002 rows, steps 50700 to 100623:
Temp Press Volume TotEng KinEng PotEng c_1[4] Density
194.57 1491.28 67412.1 -22098.3 1277.69 -23375.9 33.3535 0.97804
Loop time of 47.5313 on 12 procs for 100000 steps with 2204 atoms

undump              1
unfix               2

# Run 0.5 ns equilibration in NPH ensemble
#
fix 3 all nph z -1000 -1000 10000.0
fix 4 all temp/csvr 255 255 5000.0 837392

dump                1 all custom 1000 nph.ML_m1000atm_255K.dump id type x y z vx vy vz
run                 100000
Step Temp Press Volume TotEng KinEng PotEng c_1[4] Density
100623    194.55464    1742.2426    67412.137   -22098.267    1277.5867   -23375.854    43.751169   0.97804047
Averages over the last 501 of 1002 rows, steps 150700 to 200623:
Temp Press Volume TotEng KinEng PotEng c_1[4] Density
255.928 -1011.38 69080.1 -20466.8 1680.61 -22147.4 314.446 0.954447
Loop time of 51.5287 on 12 procs for 100000 steps with 2204 atoms

undump              1
unfix 3
unfix 4

# Run 0.5 ns equilibration in NVE ensemble
#
fix                 2 all nve

dump                1 all custom 1000 eq.ML_m1000atm_255K.dump id type x y z vx vy vz
run                 100000
Step Temp Press Volume TotEng KinEng PotEng c_1[4] Density
200623    253.32202   -1314.9012     68867.67   -20542.358    1663.4959   -22205.854    419.18355   0.95736937
Averages over the last 501 of 1002 rows, steps 250700 to 300623:
Temp Press Volume TotEng KinEng PotEng c_1[4] Density
252.562 -926.735 68867.7 -20542.3 1658.5 -22200.8 725.96 0.957369
Loop time of 48.1536 on 12 procs for 100000 steps with 2204 atoms

write_data		data.ML_m1000atm_255K
System init for write_data ...
