# Create simulation box of size 49.22 x 49.019 x 60.06 Angstrom
#
region 	     all block 0 49.22 0 49.019635930410494 0 60.062 units box
create_box          1 all
Created orthogonal box = (0.0000000 0.0000000 0.0000000) to (49.220000 49.019636 60.062000)

# fill box with randomly distributed atoms of number density 0.0327 N/A**3
#  ~800 atoms will eventually be removed to insert the substrate
#
create_atoms        1 random 4739 63782 all
Created 4739 atoms
mass                1 18.015

# Define potential
#
pair_style          sw
pair_coeff          * * ML.sw mW
Reading sw potential file ML.sw with DATE: 2019-02-27

# Run minimization
#
minimize            1.0e-8 1.0e-8 10000 1000
  update every 1 steps, delay 0 steps, check yes
Step Temp E_pair E_mol TotEng Press
0            0    6625092.3            0    6625092.3    4360148.2
Loop time of 1.27251 on 12 procs for 650 steps with 4739 atoms

Minimization stats:
  Stopping criterion = max force evaluations
  Energy initial, next-to-last, final =
  Force two-norm initial, final = 1.1610230e+08 4.1101899
  Force max component initial, final = 67075401.0 1.3136830
  Final line search alpha, max atom move = 0.075575468 0.099282206
  Iterations, force evaluations = 650 1001

# Add velocity/set timestep
#
velocity            all create 235 120598 rot yes dist gaussian
timestep            5.0

# Define output
#
compute	            1 all msd
thermo	            100
thermo_style        custom step temp press vol etotal ke pe c_1[4] density

# Neighbor lists
#
neigh_modify        delay 0 every 1 check yes

# Set fixes
#
fix                 1 all momentum 10 linear 1 1 1 rescale
fix                 2 all nve
fix                 3 all temp/csvr 235 235 500.0 928347
fix                 4 all press/berendsen z 1 1 1000.0 modulus 20000

# Run 0.5 ns equilibration
#
dump                1 all custom 1000 eq.liquid_ML.dump id type x y z vx vy vz
run                 100000
Step Temp Press Volume TotEng KinEng PotEng c_1[4] Density
650          235    347.29654    144914.38   -47729.006    3318.9233   -51047.929 8.2379898e-34   0.97826959
Averages over the last 501 of 1002 rows, steps 50700 to 100650:
Temp Press Volume TotEng KinEng PotEng c_1[4] Density
234.912 3.3929 144116 -44910.5 3317.68 -48228.2 283.987 0.983691
Loop time of 104.634 on 12 procs for 100000 steps with 4739 atoms

undump              1
unfix               2
unfix               3
unfix               4

write_data		data.liquid_ML
System init for write_data ...
