# Create simulation box and atoms

read_data data.ML_graphite_m1000atm_245K
  orthogonal box = (0 0 2.62195) to (49.22 49.0196 57.4401)
  reading atoms ...
  6337 atoms
  reading velocities ...
  6337 velocities
group water type 1
3577 atoms in group water
group graphite type 2
2760 atoms in group graphite

# Define potential

pair_style sw
pair_coeff * * MLC_e.sw mW C

# Fix graphite atoms in place

fix 5 graphite setforce 0.0 0.0 0.0
velocity graphite set 0.0 0.0 0.0

# Equilibration of molecular water

# Add velocity/set timestep

velocity	    water create 248 11712 rot yes dist gaussian
timestep	    5.0

# Define output

compute			1 water msd
compute			3 water temp
thermo	    	50
thermo_style	custom step temp press vol etotal ke pe c_1[4] c_3

# Neighbor lists

neigh_modify    delay 0 every 1 check yes

# Set fixes

fix             1 water momentum 10 linear 1 1 1 rescale
fix             2 water nve
fix             3 water temp/csvr 248 248 500.0 11712
fix             4 water press/berendsen z -1000 -1000 1000.0 modulus 20000

# Run 0.5 ns equilibration

dump		    1 all atom 2000 run_29/eq.het_freeze_29-248.dump

reset_timestep  0

run	            100000
  update every 1 steps, delay 0 steps, check yes
Step Temp Press Volume TotEng KinEng PotEng c_1[4] c_3
0     139.9697   -1056.0851     132262.2   -34085.323    2643.5254   -36728.848            0          248
Averages over the last 1001 of 2001 rows, steps 50000 to 100000:
Temp Press Volume TotEng KinEng PotEng c_1[4] c_3
139.732 -1198.87 132864 -34037.3 2639.03 -36676.4 228.104 247.578
Loop time of 120.458 on 160 procs for 100000 steps with 6337 atoms

write_data		run_29/data.eq-het_freeze_29-248
undump          1

reset_timestep  0

unfix           2
unfix           3
unfix           4

################################################
#######         Run Simulation         #########
################################################

log				run_29/log.run_het_freeze_29
