# Create simulation box and atoms

read_data data.graphite_substrate_500
Reading data file ...
  orthogonal box = (0.0000000 0.0000000 -0.51822262) to (49.220000 49.019636 60.580223)
  reading atoms ...
  6750 atoms
  reading velocities ...
  6750 velocities
group water type 1
3990 atoms in group water
group graphite type 2
2760 atoms in group graphite

# Define potential

pair_style sw
pair_coeff * * mWC.sw mW C
Reading sw potential file mWC.sw with DATE: 2019-02-27

# Fix graphite atoms in place

fix 5 graphite setforce 0.0 0.0 0.0
velocity graphite set 0.0 0.0 0.0

# Equilibration of molecular water

# Add velocity/set timestep

velocity	    water create 225 26993 rot yes dist gaussian
timestep	    5.0

# Define output

compute			1 water msd
compute			3 water temp
thermo	    	50
thermo_style	custom step temp press vol etotal ke pe c_1[4] c_3

# Neighbor lists

neigh_modify    delay 0 every 1 check yes

# Set fixes

fix             1 water momentum 10 linear 1 1 1 rescale
fix             2 water nve
fix             3 water temp/csvr 225 225 500.0 26993
fix             4 water press/berendsen iso -500 -500 1000.0 modulus 20000

# Run 0.5 ns equilibration

dump		    1 all atom 2000 run_2/eq.het_freeze_2-225.dump

reset_timestep  0

run	            100000
  update every 1 steps, delay 0 steps, check yes
Step Temp Press Volume TotEng KinEng PotEng c_1[4] c_3
0    132.98637   -1273.0418    147415.06    -35990.25    2675.3515   -38665.602            0          225
Averages over the last 1001 of 2001 rows, steps 50000 to 100000:
Temp Press Volume TotEng KinEng PotEng c_1[4] c_3
132.945 -495.389 142072 -39611.4 2674.51 -42285.9 298.57 224.93
Loop time of 665.86 on 12 procs for 100000 steps with 6750 atoms

write_data		run_2/data.eq-het_freeze_2-225
System init for write_data ...
undump          1

reset_timestep  0

unfix           2
unfix           3
unfix           4

################################################
#######         Run Simulation         #########
################################################

log				run_2/log.run_het_freeze_2
